<?xml version="1.0" encoding="UTF-8"?>

<!-- generated on 2025-04-04 16:25:04 by Eclipse SUMO netconvert Version 1.19.0
<configuration xmlns:xsi="http://www.w3.org/2001/XMLSchema-instance" xsi:noNamespaceSchemaLocation="http://sumo.dlr.de/xsd/netconvertConfiguration.xsd">

    <input>
        <sumo-net-file value="guyancourt/guyancourt.net.xml"/>
    </input>

    <output>
        <plain-output-prefix value="guyancourt/guyancourt"/>
    </output>

    <processing>
        <geometry.min-radius.fix.railways value="false"/>
        <geometry.max-grade.fix value="false"/>
        <offset.disable-normalization value="true"/>
        <lefthand value="0"/>
    </processing>

    <tls_building>
        <tls.ignore-internal-junction-jam value="1"/>
    </tls_building>

    <junctions>
        <no-turnarounds value="true"/>
        <junctions.corner-detail value="5"/>
        <junctions.limit-turn-speed value="5.50"/>
        <rectangular-lane-cut value="0"/>
    </junctions>

    <pedestrian>
        <walkingareas value="0"/>
    </pedestrian>

</configuration>
-->

<tlLogics version="1.16" xmlns:xsi="http://www.w3.org/2001/XMLSchema-instance" xsi:noNamespaceSchemaLocation="http://sumo.dlr.de/xsd/tllogic_file.xsd">
    <tlLogic id="1027119954" type="static" programID="0" offset="0">
        <phase duration="82" state="GG"/>
        <phase duration="3"  state="yy"/>
        <phase duration="5"  state="rr"/>
    </tlLogic>
    <tlLogic id="1029150854" type="static" programID="0" offset="0">
        <phase duration="80" state="GG"/>
        <phase duration="5"  state="yy"/>
        <phase duration="5"  state="rr"/>
    </tlLogic>
    <tlLogic id="1029150908" type="static" programID="0" offset="0">
        <phase duration="80" state="GG"/>
        <phase duration="5"  state="yy"/>
        <phase duration="5"  state="rr"/>
    </tlLogic>
    <tlLogic id="1029150977" type="static" programID="0" offset="0">
        <phase duration="80" state="GG"/>
        <phase duration="5"  state="yy"/>
        <phase duration="5"  state="rr"/>
    </tlLogic>
    <tlLogic id="1029151033" type="static" programID="0" offset="0">
        <phase duration="80" state="GG"/>
        <phase duration="5"  state="yy"/>
        <phase duration="5"  state="rr"/>
    </tlLogic>
    <tlLogic id="1829739307" type="static" programID="0" offset="0">
        <phase duration="80" state="GG"/>
        <phase duration="5"  state="yy"/>
        <phase duration="5"  state="rr"/>
    </tlLogic>
    <tlLogic id="1882263691" type="static" programID="0" offset="0">
        <phase duration="42" state="GGgrrrGgg"/>
        <phase duration="3"  state="yyyrrryyy"/>
        <phase duration="42" state="rrrGGGrrr"/>
        <phase duration="3"  state="rrryyyrrr"/>
    </tlLogic>
    <tlLogic id="5194317764" type="static" programID="0" offset="0">
        <phase duration="82" state="GG"/>
        <phase duration="3"  state="yy"/>
        <phase duration="5"  state="rr"/>
    </tlLogic>
    <tlLogic id="5194317766" type="static" programID="0" offset="0">
        <phase duration="82" state="GG"/>
        <phase duration="3"  state="yy"/>
        <phase duration="5"  state="rr"/>
    </tlLogic>
    <tlLogic id="GS_cluster_1025295450_1025295521_1025295559_1025295573_#6more" type="static" programID="0" offset="0">
        <phase duration="38" state="rrrrGGggrrrrrGGgg"/>
        <phase duration="3"  state="rrrryyggrrrrryygg"/>
        <phase duration="6"  state="rrrrrrGGrrrrrrrGG"/>
        <phase duration="3"  state="rrrrrryyrrrrrrryy"/>
        <phase duration="37" state="GGggrrrrGGGggrrrr"/>
        <phase duration="3"  state="yyyyrrrryyyyyrrrr"/>
    </tlLogic>
    <tlLogic id="GS_cluster_105394695_3737568543" type="static" programID="0" offset="0">
        <phase duration="27" state="rrrGGGgGGrrr"/>
        <phase duration="3"  state="rrryyyyyyrrr"/>
        <phase duration="27" state="GGGrrrrrrrrr"/>
        <phase duration="3"  state="yyyrrrrrrrrr"/>
        <phase duration="27" state="rrrrrrrrrGGG"/>
        <phase duration="3"  state="rrrrrrrrryyy"/>
    </tlLogic>
    <tlLogic id="cluster_1018660186_11841041586_11841041587_11841041588_#8more" type="static" programID="0" offset="0">
        <phase duration="40" state="GGGggggggggrrrrrggggggGGgg"/>
        <phase duration="5"  state="yyyyyyyyyyyrrrrryyyyyyyyyy"/>
        <phase duration="40" state="rrrrrrrrrrrGGGGGrrrrrrrrrr"/>
        <phase duration="5"  state="rrrrrrrrrrryyyyyrrrrrrrrrr"/>
    </tlLogic>
    <tlLogic id="cluster_1018660834_1018661587_1018662045_11841041555_#6more" type="static" programID="0" offset="0">
        <phase duration="29" state="rrrrrrrGGGGggggggggggggggggggggGGGgggrrrrrrr"/>
        <phase duration="5"  state="rrrrrrryyyyggggggggggggggggggggyyygggrrrrrrr"/>
        <phase duration="6"  state="rrrrrrrrrrrGgGgggggggggggggggggrrrGGgrrrrrrr"/>
        <phase duration="5"  state="rrrrrrrrrrryyyyyyyyyyyyyyyyyyyyrrryyyrrrrrrr"/>
        <phase duration="29" state="GrrrrrrrrrrrrrrrrrrrrrrrrrrrrrrrrrrrrGGGgggg"/>
        <phase duration="5"  state="yrrrrrrrrrrrrrrrrrrrrrrrrrrrrrrrrrrrryyygggg"/>
        <phase duration="6"  state="rggGgggrrrrrrrrrrrrrrrrrrrrrrrrrrrrrrrrrgggG"/>
        <phase duration="5"  state="ryyyyyyrrrrrrrrrrrrrrrrrrrrrrrrrrrrrrrrryyyy"/>
    </tlLogic>
    <tlLogic id="cluster_1018660971_1018661004_1018661565_207603392" type="static" programID="0" offset="0">
        <phase duration="42" state="GggrrrGGg"/>
        <phase duration="3"  state="yyyrrryyy"/>
        <phase duration="42" state="rrrGGgGrr"/>
        <phase duration="3"  state="rrryyyyrr"/>
    </tlLogic>
    <tlLogic id="cluster_1018662037_1018663333_12033671281_242925924" type="static" programID="0" offset="0">
        <phase duration="42" state="GGgggrrrrrgggggGGGGgg"/>
        <phase duration="3"  state="yyyyyrrrrryyyyyyyyyyy"/>
        <phase duration="42" state="rrrrrGGGGgGrrrrrrrrrr"/>
        <phase duration="3"  state="rrrrryyyyyyrrrrrrrrrr"/>
    </tlLogic>
    <tlLogic id="cluster_1018735879_207603274" type="static" programID="0" offset="0">
        <phase duration="42" state="GggrrrGGg"/>
        <phase duration="3"  state="yyyrrryyy"/>
        <phase duration="42" state="rrrGGgGrr"/>
        <phase duration="3"  state="rrryyyyrr"/>
    </tlLogic>
    <tlLogic id="cluster_1025295347_1025295417_1025295435_1025295452_#9more" type="static" programID="0" offset="0">
        <phase duration="32" state="rrrrrrrrrrrrggggggggGGGgggggggggGGgggggggggg"/>
        <phase duration="3"  state="rrrrrrrrrrrrggggggggyyygggggggggyygggggggggg"/>
        <phase duration="6"  state="rrrrrrrrrrrrggggggggrrrGgGggggggrrGgGggggggg"/>
        <phase duration="3"  state="rrrrrrrrrrrryyyyyyyyrrryyyyyyyyyrryyyyyyyyyy"/>
        <phase duration="1"  state="rrrrrrrrrrrrrrrrrrrrrrrrrrrrrrrrrrrrrrrrrrrr"/>
        <phase duration="32" state="GGGGGggggggGrrrrrrrrrrrrrrrrrrrrrrrrrrrrrrrr"/>
        <phase duration="3"  state="yyyyyygggggyrrrrrrrrrrrrrrrrrrrrrrrrrrrrrrrr"/>
        <phase duration="6"  state="rrrrrrGGGGGGrrrrrrrrrrrrrrrrrrrrrrrrrrrrrrrr"/>
        <phase duration="3"  state="rrrrrryyyyyyrrrrrrrrrrrrrrrrrrrrrrrrrrrrrrrr"/>
        <phase duration="1"  state="rrrrrrrrrrrrrrrrrrrrrrrrrrrrrrrrrrrrrrrrrrrr"/>
    </tlLogic>
    <tlLogic id="cluster_1026678604_12009101484_12009101485_12009101486_#3more" type="static" programID="0" offset="0">
        <phase duration="27" state="gGGGgggrrrrrrrrrrrrGGrrrgggggggggggg"/>
        <phase duration="6"  state="gyyygggrrrrrrrrrrrryyrrrgggggggggggg"/>
        <phase duration="6"  state="grrrGGgrrrrrrrrrrrrrrGGggggggggggggg"/>
        <phase duration="6"  state="yrrryyyrrrrrrrrrrrrrryyyyyyyyyyyyyyy"/>
        <phase duration="27" state="rrrrrrrGGGGGgGrrrrrrrrrrrrrrrrrrrrrr"/>
        <phase duration="6"  state="rrrrrrryyyyyyyrrrrrrrrrrrrrrrrrrrrrr"/>
        <phase duration="6"  state="rrrrrrrrrrrrrGGGGGGrrrrrrrrrrrrrrrrr"/>
        <phase duration="6"  state="rrrrrrrrrrrrryyyyyyrrrrrrrrrrrrrrrrr"/>
    </tlLogic>
    <tlLogic id="cluster_1029150768_1029150799_1029150886_1029150935_#1more" type="static" programID="0" offset="0">
        <phase duration="42" state="GGggrrrrGGggrrrr"/>
        <phase duration="3"  state="yyyyrrrryyyyrrrr"/>
        <phase duration="42" state="rrrrGGggrrrrGGgg"/>
        <phase duration="3"  state="rrrryyyyrrrryyyy"/>
    </tlLogic>
    <tlLogic id="cluster_1029150797_1029150848_1029150882_242183282" type="static" programID="0" offset="0">
        <phase duration="40" state="GGggGGggrrrr"/>
        <phase duration="5"  state="yyyyyyyyrrrr"/>
        <phase duration="40" state="GrrrrrrrGGGg"/>
        <phase duration="5"  state="yrrrrrrryyyy"/>
    </tlLogic>
    <tlLogic id="cluster_1037491552_1037491831_1037491984_1037492118_#3more" type="static" programID="0" offset="0">
        <phase duration="42" state="GggrrrGGGg"/>
        <phase duration="3"  state="yyyrrryyyy"/>
        <phase duration="42" state="rrrGGgGrrr"/>
        <phase duration="3"  state="rrryyyyrrr"/>
    </tlLogic>
    <tlLogic id="cluster_105412991_5964850193_5964850195" type="static" programID="0" offset="0">
        <phase duration="18" state="rrrrrrGggrrrGGg"/>
        <phase duration="3"  state="rrrrrryyyrrryyy"/>
        <phase duration="20" state="rrrrrrrrrGGgGrr"/>
        <phase duration="3"  state="rrrrrrrrryyyyrr"/>
        <phase duration="20" state="GGGrrrrrrrrrrrr"/>
        <phase duration="3"  state="yyyrrrrrrrrrrrr"/>
        <phase duration="20" state="rrrGGGrrrrrrrrr"/>
        <phase duration="3"  state="rrryyyrrrrrrrrr"/>
    </tlLogic>
    <tlLogic id="cluster_11402959318_11402959321_1327260991_1327261225_#13more" type="static" programID="0" offset="0">
        <phase duration="33" state="rrrrGGGggrrrrrGGGgg"/>
        <phase duration="6"  state="rrrryyyyyrrrrryyyyy"/>
        <phase duration="33" state="GGrrrrrrrGGGrrrrrrr"/>
        <phase duration="6"  state="yyrrrrrrryyyrrrrrrr"/>
        <phase duration="6"  state="rrGGrrrrrrrrGGrrrrr"/>
        <phase duration="6"  state="rryyrrrrrrrryyrrrrr"/>
    </tlLogic>
    <tlLogic id="cluster_1177464937_1177464955_1177465004_1177465032_#10more" type="static" programID="0" offset="0">
        <phase duration="27" state="GGGrrrrrrGGGrrrrr"/>
        <phase duration="6"  state="yyyrrrrrryyyrrrrr"/>
        <phase duration="6"  state="rrrGGrrrrrrrGGrrr"/>
        <phase duration="6"  state="rrryyrrrrrrryyrrr"/>
        <phase duration="27" state="rrrrrGGrrrrrrrGGg"/>
        <phase duration="6"  state="rrrrryyrrrrrrryyg"/>
        <phase duration="6"  state="rrrrrrrGGrrrrrrrG"/>
        <phase duration="6"  state="rrrrrrryyrrrrrrry"/>
    </tlLogic>
    <tlLogic id="cluster_12009022694_12009022695_243570503_4880149969_#1more" type="static" programID="0" offset="0">
        <phase duration="42" state="GGggrrrrGGggrrrr"/>
        <phase duration="3"  state="yyyyrrrryyyyrrrr"/>
        <phase duration="42" state="rrrrGGggrrrrGGgg"/>
        <phase duration="3"  state="rrrryyyyrrrryyyy"/>
    </tlLogic>
    <tlLogic id="cluster_1327261474_1327261703_2371362111_2371362112_#6more" type="static" programID="0" offset="0">
        <phase duration="33" state="rrrrGGGgGGrr"/>
        <phase duration="6"  state="rrrryyyyyyrr"/>
        <phase duration="6"  state="rrrrrrrrGGGG"/>
        <phase duration="6"  state="rrrrrrrryyyy"/>
        <phase duration="33" state="GGGgGrrrrrrr"/>
        <phase duration="6"  state="yyyyyrrrrrrr"/>
    </tlLogic>
    <tlLogic id="cluster_1429195709_1429195714_1429195733_1429195750" type="static" programID="0" offset="0">
        <phase duration="39" state="GGGgGGggrrr"/>
        <phase duration="6"  state="yyyyyyyyrrr"/>
        <phase duration="39" state="GrrrrrrrGGg"/>
        <phase duration="6"  state="yrrrrrrryyy"/>
    </tlLogic>
    <tlLogic id="cluster_1851653270_1851693905_1851693907_1851693909_#6more" type="static" programID="0" offset="0">
        <phase duration="37" state="gGGgggggggggrrrrrrGGGggggggggggggggg"/>
        <phase duration="3"  state="gyygggggggggrrrrrryyyggggggggggggggg"/>
        <phase duration="6"  state="grrGGgggggggrrrrrrrrrGGggggggggggggg"/>
        <phase duration="3"  state="yrryyyyyyyyyrrrrrrrrryyyyyyyyyyyyyyy"/>
        <phase duration="1"  state="rrrrrrrrrrrrrrrrrrrrrrrrrrrrrrrrrrrr"/>
        <phase duration="36" state="rrrrrrrrrrrrGGGGGgGrrrrrrrrrrrrrrrrr"/>
        <phase duration="3"  state="rrrrrrrrrrrryyyyyyyrrrrrrrrrrrrrrrrr"/>
        <phase duration="1"  state="rrrrrrrrrrrrrrrrrrrrrrrrrrrrrrrrrrrr"/>
    </tlLogic>
    <tlLogic id="cluster_1882263681_475222793" type="static" programID="0" offset="0">
        <phase duration="42" state="rG"/>
        <phase duration="3"  state="ry"/>
        <phase duration="42" state="Gr"/>
        <phase duration="3"  state="yr"/>
    </tlLogic>
    <tlLogic id="cluster_2020502247_207502167_4377186337" type="static" programID="0" offset="0">
        <phase duration="42" state="ggggGGGGgGGrrrr"/>
        <phase duration="3"  state="yyyyyyyyyyyrrrr"/>
        <phase duration="42" state="GrrrrrrrrrrGGGg"/>
        <phase duration="3"  state="yrrrrrrrrrryyyy"/>
    </tlLogic>
    <tlLogic id="cluster_242927227_416427523" type="static" programID="0" offset="0">
        <phase duration="38" state="GGgGrrrrr"/>
        <phase duration="3"  state="yyyyrrrrr"/>
        <phase duration="37" state="rrrgggGGG"/>
        <phase duration="3"  state="rrrgggyyy"/>
        <phase duration="6"  state="rrrGGGrrr"/>
        <phase duration="3"  state="rrryyyrrr"/>
    </tlLogic>
    <tlLogic id="cluster_475025692_475407887" type="static" programID="0" offset="0">
        <phase duration="42" state="GgGGrrr"/>
        <phase duration="3"  state="yyyyrrr"/>
        <phase duration="42" state="rrrrGGG"/>
        <phase duration="3"  state="rrrryyy"/>
    </tlLogic>
    <tlLogic id="joinedS_10139389070_10139389077_1988135286_266354384_#7more" type="static" programID="0" offset="0">
        <phase duration="31" state="GGGrrrrrrGGgrrrGggrrrrrrGggrGGgGGGrrrrrrrrGGGrrrrrrrrrGGGGGgrrrrGggGGGrrrrrrrrrrrrGGGGGGGGrrrrrrrrrrrrrrrrrrrrrrrrrrrrrgGrrrrr"/>
        <phase duration="6"  state="yyyrrrrrryyyrrryyyrrrrrryyyryyyyyyrrrrrrrryyyrrrrrrrrryyyyyyrrrryyyyyyrrrrrrrrrrrryyyyyyyyrrrrrrrrrrrrrrrrrrrrrrrrrrrrryyrrrrr"/>
        <phase duration="31" state="rrrGggGGgrrrGGGrrrrrrrrrGGGrrrrrrrGGrrrrrrGGGrrrrrrrrrGGGGGgrrrrGggGGGrrrrrrrrrrrrGGGrrrrrrrrrrrrrrrrrGGGGGGrrrrrrrrrrrrrrrrrr"/>
        <phase duration="6"  state="rrryyyyyyrrryyyrrrrrrrrryyyrrrrrrryyrrrrrryyyrrrrrrrrryyyyyyrrrryyyyyyrrrrrrrrrrrryyyrrrrrrrrrrrrrrrrryyyyyyrrrrrrrrrrrrrrrrrr"/>
        <phase duration="31" state="GrGgggGggGggGrGggggGGrrrrrrrrrrGggrgGrGrrGgggGggGggGrGgggGggGrrGgggGrGgggGggGGggrgGggGGrgrgggggggrgrgrgggggggrgrrggrgrgrgggggg"/>
        <phase duration="6"  state="yryyyyyyyyyyyryyyyyyyrrrrrrrrrryyyryyryrryyyyyyyyyyyryyyyyyyyrryyyyyryyyyyyyyyyyryyyyyyryryyyyyyyryryryyyyyyyryrryyryryryyyyyy"/>
        <phase duration="31" state="rrrrrrrrrrrrrrrrrrrrGGrrrrrrrrrrrrrrrrrrrrrrrrrrrrrrrrrrrrrrrrrrrrrrrrrrrrrrrrrrrrrrrrrrrrrrrrrrrrrrrrrrrrrrrrrrrrrrrrrrrrrrrr"/>
        <phase duration="6"  state="rrrrrrrrrrrrrrrrrrrryyrrrrrrrrrrrrrrrrrrrrrrrrrrrrrrrrrrrrrrrrrrrrrrrrrrrrrrrrrrrrrrrrrrrrrrrrrrrrrrrrrrrrrrrrrrrrrrrrrrrrrrrr"/>
        <phase duration="31" state="rrrGggGGgGGgrrrGggrrrrrrGggrGGgrrrGgGGrrrrGGGrrrrrrrrrGGGGGgrrrrGggGGGrrrrrrrrrrrrGGGrrrrrGGggggrrrrrrrrrrrrrrrrrrGGgggggggggg"/>
        <phase duration="6"  state="rrryyyyyyyyyrrryyyrrrrrryyyryyyrrryyyyrrrryyyrrrrrrrrryyyyyyrrrryyyyyyrrrrrrrrrrrryyyrrrrryyyyyyrrrrrrrrrrrrrrrrrryyyyyyyyyyyy"/>
        <phase duration="31" state="rrrGggGGgGGgrrrGggrrrrGGrrGrrrrrrrGGrrGGGGrrrrrrrrrrrrGGGGGgrrrrGggGGGrrrrrrrrrrrrGGGGGGGGrrrrrrrrrrrrrrrrrrrrrrrrrrrrrgGrrrrr"/>
        <phase duration="6"  state="rrryyyyyyyyyrrryyyrrrryyrryrrrrrrryyrryyyyrrrrrrrrrrrryyyyyyrrrryyyyyyrrrrrrrrrrrryyyyyyyyrrrrrrrrrrrrrrrrrrrrrrrrrrrrryyrrrrr"/>
        <phase duration="31" state="rrrGggGGgGGgrrrGggrrrrrrGGGrrrrrrrGGrrrrrrGGGrrrrrrGGGrrrGGgrrrrGggGGGrrrrrrrrrrrrGGGrrrrrGGggggrrrrrrrrrrrrrrrrrrGGgggggggggg"/>
        <phase duration="6"  state="rrryyyyyyyyyrrryyyrrrrrryyyrrrrrrryyrrrrrryyyrrrrrryyyrrryyyrrrryyyyyyrrrrrrrrrrrryyyrrrrryyyyyyrrrrrrrrrrrrrrrrrryyyyyyyyyyyy"/>
        <phase duration="31" state="rrrrrrrrrGGgrrrGggrrrrrrrrrGrrrrrrGGrrrrrrrrrrrrrrrrrrrrrrrrGGGGrrrrrrGGGrrrrrrrrrGGGrrrrrrrrrrrrrrrrrrrrrrrrrrrrrrrrrrrrrrrrr"/>
        <phase duration="6"  state="rrrrrrrrryyyrrryyyrrrrrrrrryrrrrrryyrrrrrrrrrrrrrrrrrrrrrrrryyyyrrrrrryyyrrrrrrrrryyyrrrrrrrrrrrrrrrrrrrrrrrrrrrrrrrrrrrrrrrrr"/>
        <phase duration="31" state="rrrrrrrrrGGgrrrGggrrrrrrrrrGrrrrrrGGrrrrrrrrrrrrrrrrrrrrrGGgrrrrGggrrrGGGrrrrrrGGGrrrrrrrrrrrrrrrrrrrrrrrrrrrrrrrrrrrrrrrrrrrr"/>
        <phase duration="6"  state="rrrrrrrrryyyrrryyyrrrrrrrrryrrrrrryyrrrrrrrrrrrrrrrrrrrrryyyrrrryyyrrryyyrrrrrryyyrrrrrrrrrrrrrrrrrrrrrrrrrrrrrrrrrrrrrrrrrrrr"/>
        <phase duration="31" state="rrrGggGGgGGgrrrGggrrrrrrGGGrrrrrrrGGrrrrrrGGGrrrrrrrrrGGGGGgrrrrGggGGGrrrrrrrrrrrrGGGrrrrrrrrrrrGGGGGGrrrrrrrrrrrrrrrrrrrrrrrr"/>
        <phase duration="6"  state="rrryyyyyyyyyrrryyyrrrrrryyyrrrrrrryyrrrrrryyyrrrrrrrrryyyyyyrrrryyyyyyrrrrrrrrrrrryyyrrrrrrrrrrryyyyyyrrrrrrrrrrrrrrrrrrrrrrrr"/>
        <phase duration="31" state="rrrGggGGgGGgrrrGggrrrrGGrrGrrrrrrrGGrrrrrrGGGrrrrrrrrrGGGGGgrrrrGggGGGrrrrrrrrrrrrGGGrrrrrrrrrrrrrrrrrrrrrrrGGGGGGrrrrrgGrrrrr"/>
        <phase duration="6"  state="rrryyyyyyyyyrrryyyrrrryyrryrrrrrrryyrrrrrryyyrrrrrrrrryyyyyyrrrryyyyyyrrrrrrrrrrrryyyrrrrrrrrrrrrrrrrrrrrrrryyyyyyrrrrryyrrrrr"/>
    </tlLogic>
    <tlLogic id="joinedS_1018663204_1018663214_cluster_1018660768_1018663303_1018735830_1018735892_#3more_cluster_1018735960_1018735981_1018735999" type="static" programID="0" offset="0">
        <phase duration="42" state="GrGGGGggrrrrGGGGggrrrrrG"/>
        <phase duration="3"  state="yryyyyyyrrrryyyyyyrrrrry"/>
        <phase duration="1"  state="rrrrrrrrrrrrrrrrrrrrrrrr"/>
        <phase duration="41" state="GGrrrrrrGGggrrrrrrGGggGG"/>
        <phase duration="3"  state="yyrrrrrryyyyrrrrrryyyyyy"/>
    </tlLogic>
    <tlLogic id="joinedS_1018735808_1018735820_1018735837_1018735860_#3more" type="static" programID="0" offset="0">
        <phase duration="7"  state="Grrrrrrrrrrrrrrrrrrrrrrrrr"/>
        <phase duration="3"  state="yrrrrrrrrrrrrrrrrrrrrrrrrr"/>
        <phase duration="7"  state="rGrrrrrrrrrrrrrrrrrrrrrrrr"/>
        <phase duration="3"  state="ryrrrrrrrrrrrrrrrrrrrrrrrr"/>
        <phase duration="7"  state="rrGGGrrrrrrrrrrrrrrrrrrrrr"/>
        <phase duration="3"  state="rryyyrrrrrrrrrrrrrrrrrrrrr"/>
        <phase duration="7"  state="rrrrrGGGrrrrrrrrrrrrrrrrrr"/>
        <phase duration="3"  state="rrrrryyyrrrrrrrrrrrrrrrrrr"/>
        <phase duration="7"  state="rrrrrrrrrGGGrrrrrrrrrrrrrr"/>
        <phase duration="3"  state="rrrrrrrrryyyrrrrrrrrrrrrrr"/>
        <phase duration="7"  state="rrrrrrrrrrrrGrrrrrrrrrrrrr"/>
        <phase duration="3"  state="rrrrrrrrrrrryrrrrrrrrrrrrr"/>
        <phase duration="7"  state="rrrrrrrrGrrrrgggrrggggGrGr"/>
        <phase duration="3"  state="rrrrrrrryrrrryyyrryyyyyryr"/>
        <phase duration="7"  state="rrrrrrrrGrrrrrrrGGGrrrrrrr"/>
        <phase duration="3"  state="rrrrrrrryrrrrrrryyyrrrrrrr"/>
        <phase duration="7"  state="rrrrrrrrGrrrrrrrrrrrrrGGGG"/>
        <phase duration="3"  state="rrrrrrrryrrrrrrrrrrrrryyyy"/>
    </tlLogic>
    <tlLogic id="joinedS_1025295439_cluster_1025295386_1025295444_1025295605_1025295656_#5more" type="static" programID="0" offset="0">
        <phase duration="22" state="rrrrrrrrrrrrrgggggGGGGGgrrrrr"/>
        <phase duration="3"  state="rrrrrrrrrrrrryyyyyyyyyyyrrrrr"/>
        <phase duration="1"  state="rrrrrrrrrrrrrrrrrrrrrrrrrrrrr"/>
        <phase duration="24" state="GGGggggrrrrrrrrrrrrrrrrrGGGGg"/>
        <phase duration="3"  state="yyyggggrrrrrrrrrrrrrrrrryyyyy"/>
        <phase duration="6"  state="rrGGGGGrrrrrrrrrrrrrrrrrrrrrr"/>
        <phase duration="3"  state="rryyyyyrrrrrrrrrrrrrrrrrrrrrr"/>
        <phase duration="24" state="rrrrrrrGGGGGgGrrrrrrrrrrrrrrr"/>
        <phase duration="3"  state="rrrrrrryyyyyyyrrrrrrrrrrrrrrr"/>
        <phase duration="1"  state="rrrrrrrrrrrrrrrrrrrrrrrrrrrrr"/>
    </tlLogic>
    <tlLogic id="joinedS_1026677741_1026677840_1026677933_1026678352_#4more" type="static" programID="0" offset="0">
        <phase duration="31" state="GGggrggrgGggrrrgggGggGrGGggGrGgggGrrGggggGggGrGggggGGrrGggggggggGGgggggggGrggggg"/>
        <phase duration="3"  state="yyyyryyryyyyrrryyyyyyyryyyyyryyyyyrryyyyyyyyyryyyyyyyrryyyyyyyyyyyyyyyyyyyryyyyy"/>
        <phase duration="31" state="rrrGGGrrrrrrrrrGGGrrrrrrrrrrrrrrrrrrrrrrrrrrrrrrrrrrrrrrrrrrrrrrrrrrrrrrrrrrrrrr"/>
        <phase duration="3"  state="rrryyyrrrrrrrrryyyrrrrrrrrrrrrrrrrrrrrrrrrrrrrrrrrrrrrrrrrrrrrrrrrrrrrrrrrrrrrrr"/>
        <phase duration="31" state="rrrrrrGGGrrrrrrGGGrrrrrrrrrrrrrrrrrrrrrrrrrrrrrrrrrrrrrrrrrrrrrrrrrrrrrrrrrrrrrr"/>
        <phase duration="3"  state="rrrrrryyyrrrrrryyyrrrrrrrrrrrrrrrrrrrrrrrrrrrrrrrrrrrrrrrrrrrrrrrrrrrrrrrrrrrrrr"/>
        <phase duration="31" state="rrrrrrrrrrrrGGGrrrrrrrrrrrrrrrGGGrrrrrGggGGgrrrrrrrrrrrrGGGGrrrrrrrrGGGGrrrrrrrr"/>
        <phase duration="3"  state="rrrrrrrrrrrryyyrrrrrrrrrrrrrrryyyrrrrryyyyyyrrrrrrrrrrrryyyyrrrrrrrryyyyrrrrrrrr"/>
        <phase duration="31" state="rrrrrrrrrGGGrrrrrrrrrGGGrrrrrrrrrrrrGGrrrrrrrrrrrrrrrrrrrrrrrrrrrrrrrrrrrrrrrrrr"/>
        <phase duration="3"  state="rrrrrrrrryyyrrrrrrrrryyyrrrrrrrrrrrryyrrrrrrrrrrrrrrrrrrrrrrrrrrrrrrrrrrrrrrrrrr"/>
        <phase duration="31" state="GGggrggrgGggrrrgggGggGrGGggGrGgggGrrGggggGggGrGggggGGrrGggggggggGGgggggggGrggggg"/>
        <phase duration="3"  state="yyyyryyryyyyrrryyyyyyyryyyyyryyyyyrryyyyyyyyyryyyyyyyrryyyyyyyyyyyyyyyyyyyryyyyy"/>
        <phase duration="31" state="rrrrrrrrrrrrrrrrrrrrrrrrrrrGGGrrrrrrrrGGGrrrrrrrrrrrrrrrrrrrrrrrrrrrrrrrrrrrrrrr"/>
        <phase duration="3"  state="rrrrrrrrrrrrrrrrrrrrrrrrrrryyyrrrrrrrryyyrrrrrrrrrrrrrrrrrrrrrrrrrrrrrrrrrrrrrrr"/>
        <phase duration="31" state="rrrrrrrrrrrrrrrrrrrrrrrrrrrrrrrrrGGGrrrrrrrrrrrrrrrrrrrrrrrrrrrrrrrrrrrrrrrrrrrr"/>
        <phase duration="3"  state="rrrrrrrrrrrrrrrrrrrrrrrrrrrrrrrrryyyrrrrrrrrrrrrrrrrrrrrrrrrrrrrrrrrrrrrrrrrrrrr"/>
        <phase duration="31" state="rrrrrrrrrrrrrrrrrrrrrrrrrrrrrrGGGrrrrrrrrrrrGGGrrrrrrrrrrrrrrrrrrrrrrrrrrrrrrrrr"/>
        <phase duration="3"  state="rrrrrrrrrrrrrrrrrrrrrrrrrrrrrryyyrrrrrrrrrrryyyrrrrrrrrrrrrrrrrrrrrrrrrrrrrrrrrr"/>
        <phase duration="31" state="rrrrrrrrrrrrrrrrrrrrrrrrrrrrrrrrrrrrrrrrrrrrrrrrrrrGGGGGrrrrrrrrrrrrrrrrrrrrGGGG"/>
        <phase duration="3"  state="rrrrrrrrrrrrrrrrrrrrrrrrrrrrrrrrrrrrrrrrrrrrrrrrrrryyyyyrrrrrrrrrrrrrrrrrrrryyyy"/>
        <phase duration="31" state="rrrrrrrrrrrrrrrrrrrrrrrrrrrrrrrrrrrrrrrrrrrrrrrrrrrrrrrrGGGGrrrrrrrrrrrrGGGGrrrr"/>
        <phase duration="3"  state="rrrrrrrrrrrrrrrrrrrrrrrrrrrrrrrrrrrrrrrrrrrrrrrrrrrrrrrryyyyrrrrrrrrrrrryyyyrrrr"/>
    </tlLogic>
    <tlLogic id="joinedS_1026678045_1026678406_cluster_1026678630_243192645" type="static" programID="0" offset="0">
        <phase duration="15" state="gggGggGrrGGggGrrGgggGrgGgggGrgGggg"/>
        <phase duration="3"  state="yyyyyyyrryyyyyrryyyyyryyyyyyryyyyy"/>
        <phase duration="15" state="rrrrrrGGGGrrrrrrrrrrrrrrrrrrrrrrrr"/>
        <phase duration="3"  state="rrrrrryyyyrrrrrrrrrrrrrrrrrrrrrrrr"/>
        <phase duration="15" state="rrrrrrrrrrrrrGGGGrrrrrrrrrrrrrrrrr"/>
        <phase duration="3"  state="rrrrrrrrrrrrryyyyrrrrrrrrrrrrrrrrr"/>
        <phase duration="15" state="rrrrrrrrrrrrrrrrrrrrGGGrrrrrrrrrrr"/>
        <phase duration="3"  state="rrrrrrrrrrrrrrrrrrrryyyrrrrrrrrrrr"/>
        <phase duration="15" state="rrrrrrrrrrrrrrrrrrrrrrrrrrrGGGrrrr"/>
        <phase duration="3"  state="rrrrrrrrrrrrrrrrrrrrrrrrrrryyyrrrr"/>
    </tlLogic>
    <tlLogic id="joinedS_1026678117_cluster_1026678395_149410120_149410159_416419238" type="static" programID="0" offset="0">
        <phase duration="23" state="rrrrrrrrrrrrrrrrrGGGGGG"/>
        <phase duration="3"  state="rrrrrrrrrrrrrrrrryyyyyy"/>
        <phase duration="1"  state="rrrrrrrrrrrrrrrrrrrrrrr"/>
        <phase duration="24" state="rGGGggGgggGGgrrrrrrrrrr"/>
        <phase duration="3"  state="ryyyggygggyyyrrrrrrrrrr"/>
        <phase duration="6"  state="rrrrggrGggrrrrrrrrrrrrr"/>
        <phase duration="3"  state="rrrryyryyyrrrrrrrrrrrrr"/>
        <phase duration="24" state="GGGrrrrrrrrrrGGGGrrrrrr"/>
        <phase duration="3"  state="yyyrrrrrrrrrryyyyrrrrrr"/>
    </tlLogic>
    <tlLogic id="joinedS_1026678518_1027006463_cluster_1026678024_5128753838_cluster_1027006420_1027006544_243192639_748366155_#1more" type="static" programID="0" offset="0">
        <phase duration="31" state="gggGggGrrGGggGrrGggggggggGrgggggGGggGrgrGgggGrgrGgggGrgrGgggGrgrGggg"/>
        <phase duration="5"  state="yyyyyyyrryyyyyrryyyyyyyyyyryyyyyyyyyyryryyyyyryryyyyyryryyyyyryryyyy"/>
        <phase duration="31" state="rrrrrrGGGGrrrrrrrrrrrrrrrrrrGGGGrrrrrrrrrrrrrrrrrrrrrrrrrrrrrrrrrrrr"/>
        <phase duration="5"  state="rrrrrryyyyrrrrrrrrrrrrrrrrrryyyyrrrrrrrrrrrrrrrrrrrrrrrrrrrrrrrrrrrr"/>
        <phase duration="31" state="rrrrrrrrrrrrrGGGGrrrrrrrrrrrrrrrrrrrrrrrrrrrrrrrrrrrrrrrrrrrrrrrrrrr"/>
        <phase duration="5"  state="rrrrrrrrrrrrryyyyrrrrrrrrrrrrrrrrrrrrrrrrrrrrrrrrrrrrrrrrrrrrrrrrrrr"/>
        <phase duration="31" state="GGGrrrrrrrrrrrrrrrrrrrrrGGGGrrrrrrrrrrrrrrrrrrrrrrrrrrrrrrrrrrrrrrrr"/>
        <phase duration="5"  state="yyyrrrrrrrrrrrrrrrrrrrrryyyyrrrrrrrrrrrrrrrrrrrrrrrrrrrrrrrrrrrrrrrr"/>
        <phase duration="31" state="rrrrrrrrrrrrrrrrrrrrrrrrrrrrrrrrrrrrGGGGrrrrrrrrrrrrrrrrrrrrrrrrrrrr"/>
        <phase duration="5"  state="rrrrrrrrrrrrrrrrrrrrrrrrrrrrrrrrrrrryyyyrrrrrrrrrrrrrrrrrrrrrrrrrrrr"/>
        <phase duration="31" state="rrrrrrrrrrrrrrrrrrrrrrrrrrrrrrrrrrrrrrrrrrrrGGGGrrrrrrrrrrrrrrrrrrrr"/>
        <phase duration="5"  state="rrrrrrrrrrrrrrrrrrrrrrrrrrrrrrrrrrrrrrrrrrrryyyyrrrrrrrrrrrrrrrrrrrr"/>
        <phase duration="31" state="rrrrrrrrrrrrrrrrrrrrrrrrrrrrrrrrrrrrrrrrrrrrrrrrrrrrGGGGrrrrrrrrrrrr"/>
        <phase duration="5"  state="rrrrrrrrrrrrrrrrrrrrrrrrrrrrrrrrrrrrrrrrrrrrrrrrrrrryyyyrrrrrrrrrrrr"/>
        <phase duration="31" state="rrrrrrrrrrrrrrrrrrrrrrrrrrrrrrrrrrrrrrrrrrrrrrrrrrrrrrrrrrrrGGGGrrrr"/>
        <phase duration="5"  state="rrrrrrrrrrrrrrrrrrrrrrrrrrrrrrrrrrrrrrrrrrrrrrrrrrrrrrrrrrrryyyyrrrr"/>
    </tlLogic>
    <tlLogic id="joinedS_11905026402_11905026403_1796255494_416419243_#10more" type="static" programID="0" offset="0">
        <phase duration="12" state="GggGrGggggggGggGrGGGrrGrrrrrGGGGGrrrrGrrGGGrrrrrGG"/>
        <phase duration="3"  state="yyyyryyyyyyyyyyyryyyrryrrrrryyyyyrrrryrryyyrrrrryy"/>
        <phase duration="12" state="rrrGGGrrrGGGrrrrrrGGrrGrrrrrGGGGGrrrrGrrGGGrrrrrGG"/>
        <phase duration="3"  state="rrryyyrrryyyrrrrrryyrryrrrrryyyyyrrrryrryyyrrrrryy"/>
        <phase duration="12" state="rrrrrrGGGrrrrrrGGGrrGGGrrrrrGGGrrGGGGGrrGGGrrrrrGG"/>
        <phase duration="3"  state="rrrrrryyyrrrrrryyyrryyyrrrrryyyrryyyyyrryyyrrrrryy"/>
        <phase duration="12" state="rrrrrrrrrrrrrrrrrrrrrrrGrrrrrrrrrrrrrrGrGrrrrrrrrr"/>
        <phase duration="3"  state="rrrrrrrrrrrrrrrrrrrrrrryrrrrrrrrrrrrrryryrrrrrrrrr"/>
        <phase duration="12" state="rrrrrrGGGrrrrrrGGGGGrrGrrrrrGGGrrGGGrGrGGGGrrrGGrr"/>
        <phase duration="3"  state="rrrrrryyyrrrrrryyyyyrryrrrrryyyrryyyryryyyyrrryyrr"/>
        <phase duration="12" state="rrrrrrGGGrrrrrrGGGGGrrGrGGGGrrrrrGGGrGrrGGGGGGrrGG"/>
        <phase duration="3"  state="rrrrrryyyrrrrrryyyyyrryryyyyrrrrryyyryrryyyyyyrryy"/>
    </tlLogic>
    <tlLogic id="joinedS_12009083947_12009083948_12009083951_12009083952_#1more" type="static" programID="0" offset="0">
        <phase duration="18" state="GrGgggGggGggGrGgggrGGggGrrGggg"/>
        <phase duration="3"  state="yryyyyyyyyyyyryyyyryyyyyrryyyy"/>
        <phase duration="20" state="rrrGGGrrrrrrGGGrrrrGrrrrrrrGGG"/>
        <phase duration="3"  state="rrryyyrrrrrryyyrrrryrrrrrrryyy"/>
        <phase duration="20" state="GGGrrrrrrrrrrrrGGGGGGGGrrrrrrr"/>
        <phase duration="3"  state="yyyrrrrrrrrrrrryyyyyyyyrrrrrrr"/>
        <phase duration="20" state="rrrrrrrrrrrrrrrrrrrrrrrGGGGrrr"/>
        <phase duration="3"  state="rrrrrrrrrrrrrrrrrrrrrrryyyyrrr"/>
    </tlLogic>
    <tlLogic id="joinedS_1327261428_1327262193_1327262366" type="static" programID="0" offset="0">
        <phase duration="9"  state="GGrrrrrrrrrrrrrr"/>
        <phase duration="6"  state="yyrrrrrrrrrrrrrr"/>
        <phase duration="9"  state="rrGGGrrrrGGrrrrr"/>
        <phase duration="6"  state="rryyyrrrryyrrrrr"/>
        <phase duration="9"  state="rrrrrGGrrrrrrrrr"/>
        <phase duration="6"  state="rrrrryyrrrrrrrrr"/>
        <phase duration="9"  state="rrrrrrrGGrrrrrrr"/>
        <phase duration="6"  state="rrrrrrryyrrrrrrr"/>
        <phase duration="9"  state="rrrrrrrrrrrGGrrr"/>
        <phase duration="6"  state="rrrrrrrrrrryyrrr"/>
        <phase duration="9"  state="rrrrrrrrrrrrrGGG"/>
        <phase duration="6"  state="rrrrrrrrrrrrryyy"/>
    </tlLogic>
    <tlLogic id="joinedS_1882263752_cluster_1847389018_1847389020_1849018515_1849018518_#7more" type="static" programID="0" offset="0">
        <phase duration="25" state="GrrrrrrggggggrrrrrrrrrrrrrrrrrrggggggGGGGGg"/>
        <phase duration="3"  state="yrrrrrryyyyyyrrrrrrrrrrrrrrrrrryyyyyyyyyyyy"/>
        <phase duration="1"  state="rrrrrrrrrrrrrrrrrrrrrrrrrrrrrrrrrrrrrrrrrrr"/>
        <phase duration="27" state="GggggggrrrrrrGGGgggrrrrrrrrrrrrrrrrrrrrrrrr"/>
        <phase duration="3"  state="yyyyyyyrrrrrryyyyyyrrrrrrrrrrrrrrrrrrrrrrrr"/>
        <phase duration="27" state="GrrrrrrrrrrrrrrrrrrGGGGGgGgggggrrrrrrrrrrrr"/>
        <phase duration="3"  state="yrrrrrrrrrrrrrrrrrryyyyyyyyyyyyrrrrrrrrrrrr"/>