<?xml version="1.0" encoding="UTF-8"?>

<!-- generated on 2025-04-04 16:25:04 by Eclipse SUMO netconvert Version 1.19.0
<configuration xmlns:xsi="http://www.w3.org/2001/XMLSchema-instance" xsi:noNamespaceSchemaLocation="http://sumo.dlr.de/xsd/netconvertConfiguration.xsd">

    <input>
        <sumo-net-file value="guyancourt/guyancourt.net.xml"/>
    </input>

    <output>
        <plain-output-prefix value="guyancourt/guyancourt"/>
    </output>

    <processing>
        <geometry.min-radius.fix.railways value="false"/>
        <geometry.max-grade.fix value="false"/>
        <offset.disable-normalization value="true"/>
        <lefthand value="0"/>
    </processing>

    <tls_building>
        <tls.ignore-internal-junction-jam value="1"/>
    </tls_building>

    <junctions>
        <no-turnarounds value="true"/>
        <junctions.corner-detail value="5"/>
        <junctions.limit-turn-speed value="5.50"/>
        <rectangular-lane-cut value="0"/>
    </junctions>

    <pedestrian>
        <walkingareas value="0"/>
    </pedestrian>

</configuration>
-->

<nodes version="1.16" xmlns:xsi="http://www.w3.org/2001/XMLSchema-instance" xsi:noNamespaceSchemaLocation="http://sumo.dlr.de/xsd/nodes_file.xsd">
    <location netOffset="-423290.33,-5399885.91" convBoundary="0.00,0.00,11106.42,5920.01" origBoundary="1.875055,48.712523,2.142006,48.801301" projParameter="+proj=utm +zone=31 +ellps=WGS84 +datum=WGS84 +units=m +no_defs"/>

    <node id="10034231785" x="6619.67" y="2459.71" type="dead_end"/>
    <node id="10034231786" x="6640.14" y="2502.24" type="dead_end"/>
    <node id="10048148476" x="6700.09" y="3331.06" type="dead_end"/>
    <node id="10048148477" x="6705.39" y="3304.68" type="dead_end"/>
    <node id="10048148478" x="6709.06" y="3312.03" type="priority"/>
    <node id="10048148479" x="6694.26" y="3318.95" type="dead_end"/>
    <node id="10048148483" x="6724.85" y="3305.01" type="right_before_left"/>
    <node id="10061230303" x="5993.88" y="3842.76" type="dead_end"/>
    <node id="10061230305" x="6104.79" y="3975.45" type="dead_end"/>
    <node id="10061230306" x="6095.36" y="3988.85" type="dead_end"/>
    <node id="10061230307" x="6089.89" y="3996.38" type="priority"/>
    <node id="10066033998" x="9166.30" y="2568.84" type="priority"/>
    <node id="10066033999" x="9141.22" y="2591.84" type="priority"/>
    <node id="10074093181" x="6674.72" y="4293.72" type="priority"/>
    <node id="10116050561" x="8207.50" y="5182.25" type="dead_end"/>
    <node id="10139348136" x="8649.15" y="1600.59" type="priority"/>
    <node id="10139348137" x="8642.19" y="1601.94" type="priority"/>
    <node id="10139348187" x="7781.53" y="2381.62" type="priority" fringe="inner">
        <param key="buffer_stop" value="true"/>
    </node>
    <node id="10139348188" x="7750.89" y="2381.19" type="right_before_left"/>
    <node id="10139348190" x="7769.27" y="2376.49" type="priority" fringe="inner">
        <param key="buffer_stop" value="true"/>
    </node>
    <node id="10139348199" x="7512.17" y="2747.33" type="right_before_left"/>
    <node id="10139348200" x="7483.23" y="2695.14" type="right_before_left"/>
    <node id="10139348201" x="7556.00" y="2753.54" type="priority"/>
    <node id="10139348203" x="7591.56" y="2607.43" type="priority"/>
    <node id="10139348206" x="7636.04" y="2691.87" type="priority"/>
    <node id="10139348207" x="7656.68" y="2681.24" type="right_before_left"/>
    <node id="10139348209" x="7634.54" y="1798.17" type="priority"/>
    <node id="10139348211" x="7588.39" y="1689.88" type="priority"/>
    <node id="10139348212" x="7568.55" y="1728.72" type="priority"/>
    <node id="10139348213" x="7583.59" y="1717.94" type="right_before_left"/>
    <node id="10139348214" x="7610.93" y="1794.76" type="priority"/>
    <node id="10139348215" x="7626.03" y="1784.76" type="right_before_left"/>
    <node id="10139389064" x="7692.31" y="1465.63" type="priority"/>
    <node id="10139389070" x="7668.51" y="1435.46" type="traffic_light" tl="joinedS_10139389070_10139389077_1988135286_266354384_#7more" controlledInner="-1108126471#0 -1321655224#1 -22723765 -531640759#1 -531640759#2 -531640765#1 -531640765#2 -531640765#3 1108126469#1 1108126471#0 1108126472#1 1108126473#1 1321655224#1 22723765 531640759#1 531640759#2 531640765#1 531640765#2 531640765#3 698068919#0"/>
    <node id="10139389073" x="7625.03" y="1400.11" type="priority"/>
    <node id="10139389077" x="7646.55" y="1425.27" type="traffic_light" tl="joinedS_10139389070_10139389077_1988135286_266354384_#7more" controlledInner="-1108126471#0 -1321655224#1 -22723765 -531640759#1 -531640759#2 -531640765#1 -531640765#2 -531640765#3 1108126469#1 1108126471#0 1108126472#1 1108126473#1 1321655224#1 22723765 531640759#1 531640759#2 531640765#1 531640765#2 531640765#3 698068919#0"/>
    <node id="10139389165" x="9233.07" y="1360.43" type="priority"/>
    <node id="10139389214" x="9565.40" y="1617.80" type="right_before_left"/>
    <node id="10139389218" x="9690.62" y="1491.54" type="priority"/>
    <node id="10141323710" x="7733.00" y="1341.40" type="right_before_left"/>
    <node id="10141323734" x="7671.58" y="1367.16" type="right_before_left"/>
    <node id="10141323759" x="7837.81" y="1280.85" type="right_before_left"/>
    <node id="10141323760" x="7841.37" y="1289.49" type="right_before_left"/>
    <node id="10141323779" x="7798.16" y="1295.76" type="priority"/>
    <node id="10141323809" x="7796.70" y="1167.66" type="right_before_left"/>
    <node id="10141323812" x="7807.26" y="1133.06" type="right_before_left"/>
    <node id="10141323814" x="7813.60" y="1116.10" type="priority"/>
    <node id="10141323823" x="7520.65" y="1224.28" type="priority"/>
    <node id="10141323824" x="7502.38" y="1222.01" type="right_before_left"/>
    <node id="10141323825" x="7483.56" y="1216.55" type="priority"/>
    <node id="10141323831" x="7517.12" y="1413.24" type="priority"/>
    <node id="10141323849" x="7790.27" y="1610.43" type="right_before_left"/>
    <node id="10141323859" x="7881.28" y="1540.57" type="priority"/>
    <node id="10141323875" x="7944.57" y="1377.69" type="priority"/>
    <node id="10141323906" x="7635.02" y="1651.12" type="dead_end"/>
    <node id="10141323918" x="7259.76" y="1684.08" type="dead_end"/>
    <node id="10141323919" x="7242.43" y="1694.88" type="dead_end"/>
    <node id="10141323920" x="7349.85" y="1625.47" type="dead_end"/>
    <node id="10141323953" x="9021.03" y="2441.48" type="priority"/>
    <node id="10173984402" x="6173.13" y="4211.46" type="priority"/>
    <node id="10173984409" x="6798.63" y="4588.22" type="priority"/>
    <node id="1018521767" x="5628.34" y="4592.16" type="priority"/>
    <node id="1018521785" x="6355.60" y="4679.24" type="priority"/>
    <node id="1018521810" x="5187.01" y="4604.74" type="priority"/>
    <node id="1018521818" x="6382.02" y="4516.06" type="dead_end"/>
    <node id="1018521875" x="5620.03" y="4597.85" type="priority"/>
    <node id="1018522068" x="4848.25" y="4571.53" type="priority"/>
    <node id="1018522102" x="4692.65" y="4664.25" type="priority"/>
    <node id="1018522163" x="4856.69" y="4656.53" type="right_before_left"/>
    <node id="1018522446" x="5034.77" y="4610.75" type="right_before_left"/>
    <node id="1018659872" x="6122.94" y="4502.86" type="dead_end"/>
    <node id="1018659917" x="6149.56" y="4553.65" type="priority"/>
    <node id="1018659937" x="6439.21" y="4635.72" type="dead_end"/>
    <node id="1018660027" x="6184.03" y="4510.55" type="dead_end"/>
    <node id="1018660051" x="6292.30" y="4223.03" type="priority"/>
    <node id="1018660133" x="6435.81" y="4621.86" type="dead_end"/>
    <node id="1018660190" x="5946.70" y="4590.43" type="priority"/>
    <node id="1018660233" x="6345.19" y="4538.24" type="dead_end"/>
    <node id="1018660305" x="6817.77" y="4607.50" type="priority"/>
    <node id="1018660427" x="6387.08" y="4292.03" type="priority"/>
    <node id="1018660675" x="6592.26" y="4362.45" type="priority"/>
    <node id="1018660717" x="6133.82" y="4351.40" type="priority"/>
    <node id="1018660753" x="6439.54" y="4632.59" type="dead_end"/>
    <node id="1018660967" x="6339.46" y="4554.61" type="dead_end"/>
    <node id="1018660969" x="6434.26" y="4619.21" type="dead_end"/>
    <node id="1018661015" x="6390.47" y="4287.83" type="priority"/>
    <node id="1018661270" x="6726.95" y="4540.73" type="priority"/>
    <node id="1018661323" x="6424.68" y="4537.26" type="priority"/>
    <node id="1018661331" x="6171.82" y="4518.03" type="dead_end"/>
    <node id="1018661333" x="6124.40" y="4443.59" type="priority"/>
    <node id="1018661376" x="6719.95" y="4455.79" type="priority"/>
    <node id="1018661814" x="6248.90" y="4203.36" type="priority"/>
    <node id="1018661864" x="6452.67" y="4689.21" type="dead_end"/>
    <node id="1018662052" x="6350.42" y="4265.38" type="priority"/>
    <node id="1018662236" x="6820.80" y="4601.44" type="priority"/>
    <node id="1018662265" x="6182.84" y="4516.61" type="dead_end"/>
    <node id="1018662666" x="6125.50" y="4483.15" type="dead_end"/>
    <node id="1018662834" x="6103.57" y="4077.74" type="priority"/>
    <node id="1018663074" x="6157.14" y="4544.42" type="dead_end"/>
    <node id="1018663204" x="6810.21" y="4308.85" type="traffic_light" tl="joinedS_1018663204_1018663214_cluster_1018660768_1018663303_1018735830_1018735892_#3more_cluster_1018735960_1018735981_1018735999" controlledInner="19847244#1 19850952#4 87557229#0 87565448#1"/>
    <node id="1018663214" x="6804.25" y="4304.67" type="traffic_light" tl="joinedS_1018663204_1018663214_cluster_1018660768_1018663303_1018735830_1018735892_#3more_cluster_1018735960_1018735981_1018735999" controlledInner="19847244#1 19850952#4 87557229#0 87565448#1"/>
    <node id="1018663242" x="6729.84" y="4536.00" type="priority"/>
    <node id="1018663262" x="6353.60" y="4260.93" type="priority"/>
    <node id="1018663417" x="6892.34" y="4660.00" type="priority"/>
    <node id="1018663479" x="6466.11" y="4567.89" type="dead_end"/>
    <node id="1018663485" x="6295.99" y="4218.57" type="priority"/>
    <node id="1018735808" x="6706.25" y="4224.99" type="traffic_light" tl="joinedS_1018735808_1018735820_1018735837_1018735860_#3more" controlledInner="60279727#5"/>
    <node id="1018735820" x="6735.70" y="4208.49" type="traffic_light" tl="joinedS_1018735808_1018735820_1018735837_1018735860_#3more" controlledInner="60279727#5"/>
    <node id="1018735826" x="6550.66" y="4061.66" type="dead_end"/>
    <node id="1018735837" x="6698.73" y="4195.98" type="traffic_light" tl="joinedS_1018735808_1018735820_1018735837_1018735860_#3more" controlledInner="60279727#5"/>
    <node id="1018735852" x="6046.99" y="4043.41" type="priority"/>
    <node id="1018735854" x="6745.18" y="4195.68" type="dead_end"/>
    <node id="1018735857" x="6881.52" y="4600.69" type="right_before_left"/>
    <node id="1018735860" x="6706.14" y="4185.72" type="traffic_light" tl="joinedS_1018735808_1018735820_1018735837_1018735860_#3more" controlledInner="60279727#5"/>
    <node id="1018735864" x="6547.04" y="4062.95" type="dead_end"/>
    <node id="1018735885" x="6728.02" y="4218.58" type="traffic_light" tl="joinedS_1018735808_1018735820_1018735837_1018735860_#3more" controlledInner="60279727#5"/>
    <node id="1018735887" x="6577.83" y="4360.82" type="priority"/>
    <node id="1018735890" x="6536.06" y="4091.91" type="dead_end"/>
    <node id="1018735903" x="6733.24" y="4222.18" type="priority"/>
    <node id="1018735919" x="6749.43" y="4188.24" type="dead_end"/>
    <node id="1018735920" x="6834.88" y="4561.85" type="right_before_left"/>
    <node id="1018735930" x="6573.81" y="4078.84" type="dead_end"/>
    <node id="1018735938" x="6546.05" y="4341.25" type="right_before_left"/>
    <node id="1018735955" x="6632.13" y="4138.73" type="priority"/>
    <node id="1018735957" x="6747.34" y="4190.89" type="dead_end"/>
    <node id="1018735986" x="6551.75" y="4102.95" type="dead_end"/>
    <node id="1018736003" x="6573.11" y="4073.32" type="priority"/>
    <node id="10204738268" x="7578.76" y="1833.79" type="right_before_left"/>
    <node id="10204738269" x="7563.95" y="1843.03" type="right_before_left"/>
    <node id="10204738271" x="7545.72" y="1783.76" type="right_before_left"/>
    <node id="1020933252" x="6572.08" y="4413.36" type="dead_end"/>
    <node id="1020933257" x="6563.32" y="4426.82" type="dead_end"/>
    <node id="1020933259" x="6508.06" y="4386.26" type="dead_end"/>
    <node id="1020933260" x="6520.08" y="4377.84" type="dead_end"/>
    <node id="1020933275" x="6516.72" y="4354.37" type="dead_end"/>
    <node id="1020933278" x="6521.21" y="4376.29" type="dead_end"/>
    <node id="1020933280" x="6540.11" y="4370.01" type="dead_end"/>
    <node id="1020933281" x="6529.96" y="4364.75" type="dead_end"/>
    <node id="1020933303" x="6531.23" y="4363.06" type="dead_end"/>
    <node id="1020933318" x="6507.99" y="4366.23" type="dead_end"/>
    <node id="1020933320" x="6518.22" y="4352.33" type="dead_end"/>
    <node id="1020933322" x="6530.68" y="4382.76" type="dead_end"/>
    <node id="1020933326" x="6532.12" y="4361.87" type="dead_end"/>
    <node id="1020933339" x="6507.12" y="4367.63" type="dead_end"/>
    <node id="1020933344" x="6523.45" y="4397.97" type="dead_end"/>
    <node id="1020933346" x="6496.02" y="4380.17" type="dead_end"/>
    <node id="1020933347" x="6526.03" y="4361.56" type="dead_end"/>
    <node id="1020933349" x="6516.42" y="4374.80" type="dead_end"/>
    <node id="1020933350" x="6497.28" y="4378.46" type="dead_end"/>
    <node id="1020933363" x="6506.75" y="4387.98" type="dead_end"/>
    <node id="10219524260" x="7840.36" y="1204.82" type="right_before_left"/>
    <node id="10250914038" x="7456.87" y="1536.37" type="dead_end"/>
    <node id="10250914055" x="7474.63" y="1564.36" type="dead_end"/>
    <node id="10250914056" x="7471.94" y="1569.62" type="dead_end"/>
    <node id="10250914057" x="7461.36" y="1576.55" type="dead_end"/>
    <node id="10250914067" x="7542.73" y="1701.88" type="dead_end"/>
    <node id="10250914068" x="7537.13" y="1693.30" type="dead_end"/>
    <node id="10250914069" x="7547.19" y="1685.88" type="dead_end"/>
    <node id="10250914071" x="7554.93" y="1686.01" type="dead_end"/>
    <node id="10250914073" x="7546.19" y="1705.98" type="dead_end"/>
    <node id="10250914074" x="7436.95" y="1548.67" type="dead_end"/>
    <node id="10250949426" x="7222.04" y="1595.64" type="dead_end"/>
    <node id="10250949429" x="7275.00" y="1609.05" type="priority"/>
    <node id="10250949433" x="7282.17" y="1549.02" type="priority"/>
    <node id="10250949434" x="7302.89" y="1536.28" type="priority"/>
    <node id="10250949435" x="7198.09" y="1604.43" type="priority"/>
    <node id="10250949436" x="7227.72" y="1586.60" type="priority"/>
    <node id="10250949438" x="7226.77" y="1610.26" type="priority"/>
    <node id="10250949447" x="7319.12" y="1652.31" type="dead_end"/>
    <node id="10250949449" x="7328.14" y="1643.94" type="dead_end"/>
    <node id="10250949450" x="7336.56" y="1638.66" type="dead_end"/>
    <node id="10250949453" x="7351.94" y="1628.26" type="dead_end"/>
    <node id="10250949454" x="7323.68" y="1638.21" type="dead_end"/>
    <node id="10250949455" x="7343.92" y="1633.74" type="dead_end"/>
    <node id="10250949456" x="7340.66" y="1627.44" type="dead_end"/>
    <node id="10250949468" x="7355.08" y="1599.77" type="dead_end"/>
    <node id="10250949474" x="7331.97" y="1633.02" type="dead_end"/>
    <node id="10250949475" x="7285.06" y="1547.24" type="right_before_left"/>
    <node id="10250949476" x="7296.22" y="1565.11" type="priority"/>
    <node id="10250949478" x="7262.41" y="1544.51" type="priority"/>
    <node id="10250950177" x="7590.82" y="1670.74" type="priority"/>
    <node id="10250950182" x="7508.14" y="1542.17" type="dead_end"/>
    <node id="10250950185" x="7587.34" y="1665.83" type="dead_end"/>
    <node id="10250950187" x="7581.40" y="1761.37" type="priority"/>
    <node id="1025295292" x="6187.26" y="3570.97" type="priority"/>
    <node id="1025295305" x="6178.53" y="3609.37" type="priority"/>
    <node id="1025295308" x="6401.08" y="3587.67" type="priority"/>
    <node id="1025295343" x="6248.90" y="3635.24" type="priority"/>
    <node id="1025295346" x="6234.79" y="3621.21" type="right_before_left"/>
    <node id="1025295348" x="6431.09" y="3563.99" type="priority"/>
    <node id="1025295349" x="6241.22" y="3625.72" type="right_before_left"/>
    <node id="1025295353" x="6288.37" y="3936.61" type="priority"/>
    <node id="1025295374" x="6328.70" y="3980.02" type="priority"/>
    <node id="1025295403" x="6225.21" y="3634.48" type="priority"/>
    <node id="1025295413" x="6471.66" y="3485.85" type="priority"/>
    <node id="1025295419" x="6243.87" y="3647.65" type="priority"/>
    <node id="1025295437" x="6217.25" y="3608.89" type="right_before_left"/>
    <node id="1025295439" x="6224.59" y="3926.10" type="traffic_light" tl="joinedS_1025295439_cluster_1025295386_1025295444_1025295605_1025295656_#5more" controlledInner="15121012#4"/>
    <node id="1025295484" x="6418.66" y="3573.28" type="priority"/>
    <node id="1025295487" x="6184.06" y="3591.80" type="right_before_left"/>
    <node id="1025295491" x="6207.27" y="3622.01" type="priority"/>
    <node id="1025295500" x="6397.30" y="4003.01" type="priority"/>
    <node id="1025295536" x="6175.99" y="3603.25" type="priority"/>
    <node id="1025295540" x="6335.53" y="3970.83" type="priority"/>
    <node id="1025295551" x="6194.66" y="3590.98" type="priority"/>
    <node id="1025295604" x="6301.40" y="3523.42" type="priority"/>
    <node id="1025295629" x="6247.13" y="3645.45" type="priority"/>
    <node id="1025295648" x="6321.90" y="3514.42" type="priority"/>
    <node id="1025295671" x="6194.38" y="3614.74" type="right_before_left"/>
    <node id="1025295675" x="6283.45" y="3629.74" type="priority"/>
    <node id="1025295683" x="6434.96" y="3556.82" type="priority"/>
    <node id="10261303365" x="8347.58" y="3235.91" type="priority"/>
    <node id="10261303367" x="8359.47" y="3252.30" type="priority"/>
    <node id="10261303368" x="8357.97" y="3250.40" type="priority"/>
    <node id="1026677470" x="5310.50" y="3516.05" type="priority"/>
    <node id="1026677496" x="5554.74" y="3369.80" type="priority"/>
    <node id="1026677502" x="5837.56" y="2898.78" type="priority"/>
    <node id="1026677511" x="5895.20" y="2884.79" type="priority"/>
    <node id="1026677549" x="5479.28" y="3352.31" type="priority"/>
    <node id="1026677600" x="5390.05" y="3563.20" type="priority"/>
    <node id="1026677614" x="6289.06" y="3011.06" type="priority"/>
    <node id="1026677665" x="5145.30" y="3534.94" type="priority"/>
    <node id="1026677681" x="5150.70" y="3549.05" type="priority"/>
    <node id="1026677684" x="5942.07" y="3185.52" type="priority"/>
    <node id="1026677706" x="6582.50" y="3371.63" type="right_before_left"/>
    <node id="1026677707" x="6362.04" y="3080.32" type="priority"/>
    <node id="1026677715" x="5410.64" y="3389.85" type="priority"/>
    <node id="1026677741" x="5864.84" y="2896.88" type="traffic_light" tl="joinedS_1026677741_1026677840_1026677933_1026678352_#4more" controlledInner="-829564928#1 -88384475#1 -88384475#5 829564928#1 88384475#1 88384475#5"/>
    <node id="1026677754" x="6193.44" y="3178.59" type="priority"/>
    <node id="1026677799" x="6306.56" y="3364.21" type="priority"/>
    <node id="1026677833" x="4841.92" y="3754.54" type="priority"/>
    <node id="1026677840" x="5884.12" y="2854.04" type="traffic_light" tl="joinedS_1026677741_1026677840_1026677933_1026678352_#4more" controlledInner="-829564928#1 -88384475#1 -88384475#5 829564928#1 88384475#1 88384475#5"/>
    <node id="1026677871" x="6325.95" y="3357.09" type="priority"/>
    <node id="1026677919" x="5949.52" y="3108.66" type="priority"/>
    <node id="1026677921" x="6341.93" y="3390.17" type="priority"/>
    <node id="1026677933" x="5861.45" y="2886.12" type="traffic_light" tl="joinedS_1026677741_1026677840_1026677933_1026678352_#4more" controlledInner="-829564928#1 -88384475#1 -88384475#5 829564928#1 88384475#1 88384475#5"/>
    <node id="1026677982" x="6732.24" y="3480.56" type="dead_end"/>
    <node id="1026677984" x="6345.83" y="3370.82" type="priority"/>
    <node id="1026677994" x="6715.44" y="3617.08" type="dead_end"/>
    <node id="1026678006" x="4725.81" y="3744.62" type="dead_end"/>
    <node id="1026678045" x="6280.06" y="2989.90" type="traffic_light" tl="joinedS_1026678045_1026678406_cluster_1026678630_243192645"/>
    <node id="1026678096" x="6148.81" y="3250.77" type="priority"/>
    <node id="1026678117" x="5965.30" y="3099.62" type="traffic_light" tl="joinedS_1026678117_cluster_1026678395_149410120_149410159_416419238" controlledInner="168342833#3"/>
    <node id="1026678150" x="6341.28" y="3089.38" type="priority"/>
    <node id="1026678177" x="6254.83" y="3425.07" type="priority"/>
    <node id="1026678202" x="5964.97" y="3175.75" type="priority"/>
    <node id="1026678226" x="5904.80" y="2894.89" type="right_before_left"/>
    <node id="1026678239" x="6338.20" y="3082.98" type="dead_end"/>
    <node id="1026678253" x="6289.75" y="3470.85" type="priority"/>
    <node id="1026678265" x="4759.35" y="3745.70" type="priority"/>
    <node id="1026678283" x="4547.21" y="3256.93" type="dead_end"/>
    <node id="1026678284" x="5385.50" y="3400.95" type="priority"/>
    <node id="1026678290" x="5966.85" y="3191.06" type="dead_end"/>
    <node id="1026678329" x="5124.92" y="3526.73" type="priority"/>
    <node id="1026678330" x="5877.30" y="2892.61" type="priority"/>
    <node id="1026678348" x="5215.25" y="3515.64" type="priority"/>
    <node id="1026678352" x="5902.39" y="2881.44" type="traffic_light" tl="joinedS_1026677741_1026677840_1026677933_1026678352_#4more" controlledInner="-829564928#1 -88384475#1 -88384475#5 829564928#1 88384475#1 88384475#5"/>
    <node id="1026678356" x="6339.07" y="3078.94" type="dead_end"/>
    <node id="1026678364" x="5529.38" y="3503.15" type="priority"/>
    <node id="1026678393" x="5265.06" y="3565.76" type="priority"/>
    <node id="1026678394" x="5890.46" y="2851.54" type="priority"/>
    <node id="1026678406" x="6338.51" y="2988.22" type="traffic_light" tl="joinedS_1026678045_1026678406_cluster_1026678630_243192645"/>
    <node id="1026678427" x="6122.45" y="3429.67" type="priority"/>
    <node id="1026678428" x="6319.60" y="3386.24" type="priority"/>
    <node id="1026678432" x="5784.54" y="2926.27" type="priority"/>
    <node id="1026678434" x="6356.46" y="3097.04" type="priority"/>
    <node id="1026678438" x="6328.14" y="3013.21" type="right_before_left"/>
    <node id="1026678467" x="6717.62" y="3631.94" type="dead_end"/>
    <node id="1026678474" x="5881.02" y="2903.69" type="priority"/>
    <node id="1026678518" x="6559.98" y="2866.37" type="traffic_light" tl="joinedS_1026678518_1027006463_cluster_1026678024_5128753838_cluster_1027006420_1027006544_243192639_748366155_#1more" controlledInner="-527574300#10 527574300#9"/>
    <node id="1026678548" x="5942.53" y="3110.85" type="priority"/>
    <node id="1026678553" x="6296.63" y="3418.94" type="priority"/>
    <node id="1026678579" x="5149.32" y="3518.30" type="priority"/>
    <node id="1026678606" x="5866.04" y="2858.92" type="traffic_light" tl="joinedS_1026677741_1026677840_1026677933_1026678352_#4more" controlledInner="-829564928#1 -88384475#1 -88384475#5 829564928#1 88384475#1 88384475#5"/>
    <node id="1026678633" x="5522.39" y="3333.09" type="priority"/>
    <node id="10269340596" x="6611.98" y="3103.46" type="dead_end"/>
    <node id="1027006433" x="7163.23" y="2137.58" type="right_before_left"/>
    <node id="1027006446" x="6684.36" y="2810.82" type="priority"/>
    <node id="1027006448" x="7177.03" y="2129.17" type="priority"/>
    <node id="1027006456" x="6610.77" y="2844.62" type="priority"/>
    <node id="1027006462" x="7186.87" y="2617.92" type="priority"/>
    <node id="1027006463" x="6620.13" y="2865.29" type="traffic_light" tl="joinedS_1026678518_1027006463_cluster_1026678024_5128753838_cluster_1027006420_1027006544_243192639_748366155_#1more" controlledInner="-527574300#10 527574300#9"/>
    <node id="1027006469" x="7089.29" y="2223.33" type="priority"/>
    <node id="1027006479" x="7169.06" y="2136.07" type="priority"/>
    <node id="1027006504" x="7188.82" y="2126.10" type="right_before_left"/>
    <node id="1027006514" x="7126.16" y="2637.81" type="priority"/>
    <node id="1027006515" x="6567.82" y="2816.75" type="priority"/>
    <node id="1027006519" x="7287.06" y="2503.49" type="priority"/>
    <node id="1027006521" x="6605.08" y="2878.73" type="priority"/>
    <node id="1027006538" x="6574.45" y="2853.37" type="priority"/>
    <node id="1027006543" x="7291.03" y="2499.77" type="priority"/>
    <node id="1027006546" x="7205.16" y="2148.46" type="priority"/>
    <node id="1027006560" x="6617.64" y="2930.82" type="priority"/>
    <node id="1027006570" x="7187.36" y="2194.51" type="priority"/>
    <node id="1027118821" x="6205.83" y="2756.97" type="priority"/>
    <node id="1027118970" x="6642.06" y="2512.04" type="priority"/>
    <node id="1027119028" x="5961.72" y="2594.93" type="right_before_left"/>
    <node id="1027119064" x="6939.81" y="2325.46" type="priority"/>
    <node id="1027119088" x="5985.01" y="2714.82" type="priority"/>
    <node id="1027119954" x="6477.45" y="2619.93" type="traffic_light" tl="1027119954"/>
    <node id="10280106855" x="6774.40" y="3792.05" type="priority"/>
    <node id="10280106856" x="6778.86" y="3791.31" type="priority"/>
    <node id="1029150740" x="6603.40" y="3707.88" type="priority"/>
    <node id="1029150745" x="5241.10" y="2323.26" type="priority"/>
    <node id="1029150751" x="5087.53" y="2527.04" type="priority"/>
    <node id="1029150755" x="5653.00" y="2204.66" type="priority"/>
    <node id="1029150792" x="6544.62" y="3786.18" type="priority"/>
    <node id="1029150807" x="5296.07" y="2448.70" type="priority"/>
    <node id="1029150827" x="6542.37" y="3774.79" type="dead_end"/>
    <node id="1029150837" x="6597.92" y="3995.52" type="priority"/>
    <node id="1029150846" x="5277.55" y="2326.98" type="priority"/>
    <node id="1029150854" x="5047.86" y="2484.61" type="traffic_light" tl="1029150854"/>
    <node id="1029150858" x="5359.37" y="2265.75" type="dead_end"/>
    <node id="1029150863" x="5664.53" y="2201.05" type="priority"/>
    <node id="1029150865" x="6537.74" y="3780.83" type="priority"/>
    <node id="1029150878" x="5257.87" y="2374.96" type="priority"/>
    <node id="1029150903" x="5531.33" y="2645.42" type="priority"/>
    <node id="1029150908" x="5087.44" y="2466.76" type="traffic_light" tl="1029150908"/>
    <node id="1029150928" x="6672.18" y="3915.45" type="priority"/>
    <node id="1029150933" x="6586.90" y="3695.76" type="priority"/>
    <node id="1029150977" x="5054.08" y="2449.93" type="traffic_light" tl="1029150977"/>
    <node id="1029150995" x="5636.03" y="2152.56" type="priority"/>
    <node id="1029150998" x="5645.32" y="2205.28" type="dead_end"/>
    <node id="1029151007" x="5432.36" y="2497.14" type="priority"/>
    <node id="1029151008" x="5645.71" y="2149.76" type="priority"/>
    <node id="1029151025" x="5669.35" y="2199.79" type="right_before_left"/>
    <node id="1029151029" x="6657.80" y="3734.99" type="priority"/>
    <node id="1029151033" x="5073.76" y="2494.81" type="traffic_light" tl="1029151033"/>
    <node id="1029151034" x="5627.42" y="2155.06" type="right_before_left"/>
    <node id="1029151035" x="5368.36" y="2313.61" type="priority"/>
    <node id="1029151039" x="5280.44" y="2329.34" type="dead_end"/>
    <node id="1029151040" x="5267.33" y="2339.10" type="priority"/>
    <node id="1029366186" x="6615.63" y="4754.59" type="priority"/>
    <node id="1029366277" x="7230.70" y="5176.21" type="priority"/>
    <node id="1029366278" x="6578.61" y="4187.54" type="priority"/>
    <node id="1029366298" x="6709.74" y="4168.94" type="dead_end"/>
    <node id="1029366299" x="7427.92" y="5036.75" type="priority"/>
    <node id="1029366321" x="6627.95" y="4172.64" type="priority"/>
    <node id="1029366367" x="6840.66" y="4702.54" type="priority"/>
    <node id="1029366374" x="6583.21" y="4767.48" type="priority"/>
    <node id="1029366416" x="6712.35" y="4165.71" type="dead_end"/>
    <node id="1029366435" x="6617.63" y="4187.28" type="priority"/>
    <node id="1029366446" x="6710.88" y="4179.35" type="dead_end"/>
    <node id="1029366531" x="6705.31" y="4175.01" type="dead_end"/>
    <node id="1029366556" x="6643.08" y="4155.15" type="priority"/>
    <node id="1029366575" x="6625.47" y="4767.50" type="priority"/>
    <node id="1029366671" x="7166.31" y="4969.21" type="priority"/>
    <node id="1029366700" x="6593.23" y="4780.79" type="priority"/>
    <node id="1029366731" x="6828.43" y="4649.67" type="right_before_left"/>
    <node id="10304954240" x="7037.80" y="4499.16" type="priority"/>
    <node id="10307422451" x="7606.57" y="1433.34" type="priority"/>
    <node id="10307422452" x="7618.00" y="1451.12" type="priority"/>
    <node id="10314716138" x="6963.04" y="562.76" type="priority"/>
    <node id="10314716141" x="6966.59" y="582.39" type="priority"/>
    <node id="1036450709" x="8170.79" y="4423.68" type="priority"/>
    <node id="1036450727" x="7883.41" y="4242.30" type="priority"/>
    <node id="1036450770" x="8350.10" y="4621.29" type="right_before_left"/>
    <node id="1037164440" x="6356.90" y="5140.79" type="priority"/>
    <node id="1037491499" x="6952.89" y="4336.69" type="dead_end"/>
    <node id="1037491546" x="6865.57" y="4303.33" type="priority"/>
    <node id="1037491595" x="6919.57" y="4387.44" type="dead_end"/>
    <node id="1037491600" x="6082.66" y="5068.96" type="right_before_left"/>
    <node id="1037491603" x="6974.96" y="4384.80" type="priority"/>
    <node id="1037491607" x="6081.02" y="5131.90" type="priority"/>