<?xml version="1.0" encoding="UTF-8"?>

<!-- generated on 2025-04-04 16:25:04 by Eclipse SUMO netconvert Version 1.19.0
<configuration xmlns:xsi="http://www.w3.org/2001/XMLSchema-instance" xsi:noNamespaceSchemaLocation="http://sumo.dlr.de/xsd/netconvertConfiguration.xsd">

    <input>
        <sumo-net-file value="guyancourt/guyancourt.net.xml"/>
    </input>

    <output>
        <plain-output-prefix value="guyancourt/guyancourt"/>
    </output>

    <processing>
        <geometry.min-radius.fix.railways value="false"/>
        <geometry.max-grade.fix value="false"/>
        <offset.disable-normalization value="true"/>
        <lefthand value="0"/>
    </processing>

    <tls_building>
        <tls.ignore-internal-junction-jam value="1"/>
    </tls_building>

    <junctions>
        <no-turnarounds value="true"/>
        <junctions.corner-detail value="5"/>
        <junctions.limit-turn-speed value="5.50"/>
        <rectangular-lane-cut value="0"/>
    </junctions>

    <pedestrian>
        <walkingareas value="0"/>
    </pedestrian>

</configuration>
-->

<connections version="1.16" xmlns:xsi="http://www.w3.org/2001/XMLSchema-instance" xsi:noNamespaceSchemaLocation="http://sumo.dlr.de/xsd/connections_file.xsd">
    <connection from="-1005531922#0" to="-117919554#3" fromLane="0" toLane="0"/>
    <connection from="-1005531922#0" to="117859905" fromLane="0" toLane="0"/>
    <connection from="-1005531922#0" to="-117859897#0" fromLane="0" toLane="0"/>
    <connection from="-1005531922#0" to="-117859907#1" fromLane="0" toLane="0"/>
    <connection from="-1005531922#0" to="1005531922#0" fromLane="0" toLane="0"/>

    <connection from="-1005531922#1" to="1178130793#0" fromLane="0" toLane="0"/>
    <connection from="-1005531922#1" to="-1005531922#0" fromLane="0" toLane="0"/>

    <connection from="-1013554539#0" to="22673019#4" fromLane="0" toLane="0"/>
    <connection from="-1013554539#0" to="-22673019#3" fromLane="0" toLane="0"/>
    <connection from="-1013554539#0" to="1013554539#0" fromLane="0" toLane="0"/>

    <connection from="-1013554539#1" to="1013554540" fromLane="0" toLane="0"/>
    <connection from="-1013554539#1" to="-1013554539#0" fromLane="0" toLane="0"/>
    <connection from="-1013554539#1" to="1013554539#1" fromLane="0" toLane="0"/>

    <connection from="-1013554540" to="-1013554539#0" fromLane="0" toLane="0"/>
    <connection from="-1013554540" to="1013554539#1" fromLane="0" toLane="0"/>
    <connection from="-1013554540" to="1013554540" fromLane="0" toLane="0"/>

    <connection from="-1013993612#0" to="172574326#0" fromLane="0" toLane="0"/>
    <connection from="-1013993612#0" to="-1013993612#1" fromLane="0" toLane="0"/>
    <connection from="-1013993612#0" to="1013993612#2" fromLane="0" toLane="0"/>

    <connection from="-1013993612#1" to="418384190" fromLane="0" toLane="0"/>
    <connection from="-1013993612#1" to="-1013993612#0" fromLane="0" toLane="0"/>

    <connection from="-101994824#1" to="-22673459#11" fromLane="0" toLane="0"/>
    <connection from="-101994824#1" to="22673459#12" fromLane="0" toLane="0"/>
    <connection from="-101994824#1" to="101994824#1" fromLane="0" toLane="0"/>

    <connection from="-101994840#1" to="837623011#1" fromLane="0" toLane="0"/>
    <connection from="-101994840#1" to="117939884#1" fromLane="0" toLane="0"/>
    <connection from="-101994840#1" to="1324477766#2" fromLane="0" toLane="1"/>

    <connection from="-101994842#0" to="-476285835#3" fromLane="0" toLane="0"/>
    <connection from="-101994842#0" to="-548317376#4" fromLane="0" toLane="0"/>
    <connection from="-101994842#0" to="101994842#0" fromLane="0" toLane="0"/>

    <connection from="-101994842#1" to="-101994842#0" fromLane="0" toLane="0"/>
    <connection from="-101994842#1" to="101994842#1" fromLane="0" toLane="0"/>

    <connection from="-101994842#2" to="-101994842#1" fromLane="0" toLane="0"/>
    <connection from="-101994842#2" to="101994842#2" fromLane="0" toLane="0"/>

    <connection from="-101994842#3" to="548317374#0" fromLane="0" toLane="0"/>
    <connection from="-101994842#3" to="-101994842#2" fromLane="0" toLane="0"/>
    <connection from="-101994842#3" to="101994842#3" fromLane="0" toLane="0"/>

    <connection from="-1020289497" to="51871744#6" fromLane="0" toLane="0"/>
    <connection from="-1020289497" to="-51871744#5" fromLane="0" toLane="0"/>
    <connection from="-1020289497" to="1020289497" fromLane="0" toLane="0"/>

    <connection from="-1020289498#0" to="51871744#2" fromLane="0" toLane="0"/>
    <connection from="-1020289498#0" to="1321455283#1" fromLane="0" toLane="0"/>
    <connection from="-1020289498#0" to="-1020289498#10" fromLane="0" toLane="0"/>
    <connection from="-1020289498#0" to="-1321455283#0" fromLane="0" toLane="0"/>
    <connection from="-1020289498#0" to="-51871744#1" fromLane="0" toLane="0"/>
    <connection from="-1020289498#0" to="1020289498#0" fromLane="0" toLane="0"/>

    <connection from="-1020289498#1" to="1321432282#2" fromLane="0" toLane="0"/>
    <connection from="-1020289498#1" to="-1020289498#0" fromLane="0" toLane="0"/>
    <connection from="-1020289498#1" to="-1321432282#1" fromLane="0" toLane="0"/>
    <connection from="-1020289498#1" to="1020289498#1" fromLane="0" toLane="0"/>

    <connection from="-1020289498#10" to="1321432283#0" fromLane="0" toLane="0"/>
    <connection from="-1020289498#10" to="-1020289498#8" fromLane="0" toLane="0"/>
    <connection from="-1020289498#10" to="1321455285#0" fromLane="0" toLane="0"/>
    <connection from="-1020289498#10" to="1020289498#10" fromLane="0" toLane="0"/>

    <connection from="-1020289498#3" to="581535171#2" fromLane="0" toLane="0"/>
    <connection from="-1020289498#3" to="-1020289498#1" fromLane="0" toLane="0"/>
    <connection from="-1020289498#3" to="-581535171#1" fromLane="0" toLane="0"/>
    <connection from="-1020289498#3" to="1020289498#3" fromLane="0" toLane="0"/>

    <connection from="-1020289498#4" to="1321432275" fromLane="0" toLane="0"/>
    <connection from="-1020289498#4" to="-1020289498#3" fromLane="0" toLane="0"/>
    <connection from="-1020289498#4" to="1020289498#4" fromLane="0" toLane="0"/>

    <connection from="-1020289498#7" to="1321432281" fromLane="0" toLane="0"/>
    <connection from="-1020289498#7" to="1321455284#1" fromLane="0" toLane="0"/>
    <connection from="-1020289498#7" to="-224461665#0" fromLane="0" toLane="0"/>
    <connection from="-1020289498#7" to="-1020289498#4" fromLane="0" toLane="0"/>
    <connection from="-1020289498#7" to="224461665#1" fromLane="0" toLane="0"/>
    <connection from="-1020289498#7" to="-1321455284#0" fromLane="0" toLane="0"/>
    <connection from="-1020289498#7" to="1020289498#7" fromLane="0" toLane="0"/>

    <connection from="-1020289498#8" to="1108375157#2" fromLane="0" toLane="0"/>
    <connection from="-1020289498#8" to="-1020289498#7" fromLane="0" toLane="0"/>
    <connection from="-1020289498#8" to="-1108375157#1" fromLane="0" toLane="0"/>
    <connection from="-1020289498#8" to="1020289498#8" fromLane="0" toLane="0"/>

    <connection from="-1020289499" to="-581535171#15" fromLane="0" toLane="0"/>
    <connection from="-1020289499" to="581535171#16" fromLane="0" toLane="0"/>
    <connection from="-1020289499" to="1020289499" fromLane="0" toLane="0"/>

    <connection from="-1025146115#0" to="-1025146115#3" fromLane="0" toLane="0"/>
    <connection from="-1025146115#0" to="1025146117" fromLane="0" toLane="0"/>
    <connection from="-1025146115#0" to="1025146115#4" fromLane="0" toLane="0"/>

    <connection from="-1025146115#1" to="-1025146115#0" fromLane="0" toLane="0"/>
    <connection from="-1025146115#1" to="31110867" fromLane="0" toLane="0"/>
    <connection from="-1025146115#1" to="1025146115#1" fromLane="0" toLane="0"/>

    <connection from="-1025146115#2" to="-1025146115#1" fromLane="0" toLane="0"/>
    <connection from="-1025146115#2" to="1025146119#0" fromLane="0" toLane="0"/>
    <connection from="-1025146115#2" to="1025146115#2" fromLane="0" toLane="0"/>

    <connection from="-1025146115#3" to="-1025146115#2" fromLane="0" toLane="0"/>
    <connection from="-1025146115#3" to="-1025146116" fromLane="0" toLane="0"/>
    <connection from="-1025146115#3" to="1025146115#3" fromLane="0" toLane="0"/>

    <connection from="-1025146116" to="-31110866#1" fromLane="0" toLane="0"/>
    <connection from="-1025146116" to="31110866#2" fromLane="0" toLane="0"/>
    <connection from="-1025146116" to="1025146116" fromLane="0" toLane="0"/>

    <connection from="-1025146117" to="1025146115#4" fromLane="0" toLane="0"/>
    <connection from="-1025146117" to="-1025146115#3" fromLane="0" toLane="0"/>
    <connection from="-1025146117" to="1025146117" fromLane="0" toLane="0"/>

    <connection from="-1025146119#0" to="1025146115#2" fromLane="0" toLane="0"/>
    <connection from="-1025146119#0" to="-1025146115#1" fromLane="0" toLane="0"/>
    <connection from="-1025146119#0" to="1025146119#0" fromLane="0" toLane="0"/>

    <connection from="-1025146119#1" to="-1025146122" fromLane="0" toLane="0"/>
    <connection from="-1025146119#1" to="-1025146119#0" fromLane="0" toLane="0"/>
    <connection from="-1025146119#1" to="1025146119#1" fromLane="0" toLane="0"/>

    <connection from="-1025146122" to="-31110866#0" fromLane="0" toLane="0"/>
    <connection from="-1025146122" to="31110866#1" fromLane="0" toLane="0"/>
    <connection from="-1025146122" to="1025146122" fromLane="0" toLane="0"/>

    <connection from="-1033740093#0" to="-1334589858#1" fromLane="0" toLane="0"/>
    <connection from="-1033740093#0" to="1033740093#0" fromLane="0" toLane="0"/>

    <connection from="-1033740093#1" to="126130141#2" fromLane="0" toLane="0"/>
    <connection from="-1033740093#1" to="-1033740093#0" fromLane="0" toLane="0"/>
    <connection from="-1033740093#1" to="-940609535#0" fromLane="0" toLane="0"/>
    <connection from="-1033740093#1" to="1033740093#1" fromLane="0" toLane="0"/>

    <connection from="-1033740094#0" to="-1033740093#1" fromLane="0" toLane="0"/>
    <connection from="-1033740094#0" to="1033740093#2" fromLane="0" toLane="0"/>
    <connection from="-1033740094#0" to="1033740094#0" fromLane="0" toLane="0"/>

    <connection from="-1033740094#2" to="1156963404#1" fromLane="0" toLane="0"/>
    <connection from="-1033740094#2" to="-1033740094#0" fromLane="0" toLane="0"/>
    <connection from="-1033740094#2" to="817341646#1" fromLane="0" toLane="1"/>
    <connection from="-1033740094#2" to="1033740094#2" fromLane="0" toLane="0"/>

    <connection from="-1037772209" to="49355954#1" fromLane="0" toLane="0"/>
    <connection from="-1037772209" to="-49355954#0" fromLane="0" toLane="0"/>
    <connection from="-1037772209" to="1037772209" fromLane="0" toLane="0"/>

    <connection from="-1039596759#1" to="1040202159#4" fromLane="0" toLane="0"/>
    <connection from="-1039596759#1" to="1039596759#1" fromLane="0" toLane="0"/>

    <connection from="-1039596765#0" to="163287991#1" fromLane="0" toLane="0"/>
    <connection from="-1039596765#0" to="-163287991#0" fromLane="0" toLane="0"/>
    <connection from="-1039596765#0" to="1039596765#0" fromLane="0" toLane="0"/>

    <connection from="-1039596765#1" to="-1039596765#0" fromLane="0" toLane="0"/>

    <connection from="-1040202134#1" to="1040202172#1" fromLane="0" toLane="0"/>
    <connection from="-1040202134#1" to="1040202160#0" fromLane="0" toLane="0"/>
    <connection from="-1040202134#1" to="1040202134#1" fromLane="0" toLane="0"/>

    <connection from="-1040202137" to="1040202137" fromLane="0" toLane="0"/>

    <connection from="-1040202138" to="-527574265#3" fromLane="0" toLane="0"/>
    <connection from="-1040202138" to="527574265#4" fromLane="0" toLane="0"/>
    <connection from="-1040202138" to="1040202138" fromLane="0" toLane="0"/>

    <connection from="-1040202158#0" to="1370737413#0" fromLane="0" toLane="0" visibility="9.00"/>

    <connection from="-1040202158#1" to="-1040202158#0" fromLane="0" toLane="0"/>

    <connection from="-1040202172#1" to="1040202160#0" fromLane="0" toLane="0"/>
    <connection from="-1040202172#1" to="1040202134#1" fromLane="0" toLane="0"/>

    <connection from="-1040230418" to="22702600#5" fromLane="0" toLane="0"/>
    <connection from="-1040230418" to="1347804502" fromLane="0" toLane="0"/>
    <connection from="-1040230418" to="-22702600#3" fromLane="0" toLane="0"/>
    <connection from="-1040230418" to="1040230418" fromLane="0" toLane="0"/>

    <connection from="-1040230440#0" to="-163287988#4" fromLane="0" toLane="0"/>
    <connection from="-1040230440#0" to="163287988#5" fromLane="0" toLane="0"/>
    <connection from="-1040230440#0" to="1040230440#0" fromLane="0" toLane="0"/>

    <connection from="-1040230440#1" to="-1040230440#0" fromLane="0" toLane="0"/>
    <connection from="-1040230440#1" to="1040230440#1" fromLane="0" toLane="0"/>

    <connection from="-1041133292#0" to="-22673559#4" fromLane="0" toLane="0"/>
    <connection from="-1041133292#0" to="22673559#5" fromLane="0" toLane="0"/>
    <connection from="-1041133292#0" to="-210755439#0" fromLane="0" toLane="0"/>
    <connection from="-1041133292#0" to="1041133292#0" fromLane="0" toLane="0"/>

    <connection from="-1041133292#1" to="-1041133292#0" fromLane="0" toLane="0"/>
    <connection from="-1041133292#1" to="1041133292#1" fromLane="0" toLane="0"/>

    <connection from="-1050318149" to="-525662199" fromLane="0" toLane="0"/>
    <connection from="-1050318149" to="60439207#1" fromLane="0" toLane="0"/>
    <connection from="-1050318149" to="1050318149" fromLane="0" toLane="0"/>

    <connection from="-1050318150#0" to="186777796#1" fromLane="0" toLane="0"/>
    <connection from="-1050318150#0" to="525662197#0" fromLane="0" toLane="0"/>
    <connection from="-1050318150#0" to="-525662196" fromLane="0" toLane="0"/>
    <connection from="-1050318150#0" to="526175505" fromLane="0" toLane="0"/>
    <connection from="-1050318150#0" to="1050318150#0" fromLane="0" toLane="0"/>

    <connection from="-1050318150#1" to="-1050318150#0" fromLane="0" toLane="0"/>

    <connection from="-1058083886" to="-94126032#2" fromLane="0" toLane="0"/>
    <connection from="-1058083886" to="94126032#3" fromLane="0" toLane="0"/>
    <connection from="-1058083886" to="1058083886" fromLane="0" toLane="0"/>

    <connection from="-1059694984" to="-186777796#1" fromLane="0" toLane="0"/>
    <connection from="-1059694984" to="186777796#2" fromLane="0" toLane="0"/>
    <connection from="-1059694984" to="1059694984" fromLane="0" toLane="0"/>

    <connection from="-1060466114" to="-959157793#1" fromLane="0" toLane="0"/>
    <connection from="-1060466114" to="40425072#3" fromLane="0" toLane="0"/>
    <connection from="-1060466114" to="209505414#1" fromLane="0" toLane="1"/>
    <connection from="-1060466114" to="-40425072#2" fromLane="0" toLane="0"/>
    <connection from="-1060466114" to="1060466114" fromLane="0" toLane="0"/>

    <connection from="-1060480013#1" to="-374921423#3" fromLane="0" toLane="0"/>
    <connection from="-1060480013#1" to="136183468#1" fromLane="0" toLane="0"/>
    <connection from="-1060480013#1" to="374921423#6" fromLane="0" toLane="0"/>
    <connection from="-1060480013#1" to="-630030477#4" fromLane="0" toLane="0"/>
    <connection from="-1060480013#1" to="1060480013#1" fromLane="0" toLane="0"/>

    <connection from="-1063548170#0" to="1063548170#0" fromLane="0" toLane="0"/>

    <connection from="-1067962561" to="-172690096#5" fromLane="0" toLane="0"/>
    <connection from="-1067962561" to="-22673533#3" fromLane="0" toLane="0"/>
    <connection from="-1067962561" to="1067962561" fromLane="0" toLane="0"/>

    <connection from="-1068402144#0" to="-117939885#0" fromLane="0" toLane="0"/>
    <connection from="-1068402144#0" to="117939885#1" fromLane="0" toLane="0"/>
    <connection from="-1068402144#0" to="1068402144#0" fromLane="0" toLane="0"/>

    <connection from="-1068402145#0" to="-476286139#1" fromLane="0" toLane="0"/>
    <connection from="-1068402145#0" to="-1068402144#0" fromLane="0" toLane="0"/>
    <connection from="-1068402145#0" to="476286139#2" fromLane="0" toLane="0"/>
    <connection from="-1068402145#0" to="1068402144#1" fromLane="0" toLane="0"/>

    <connection from="-1068402145#1" to="-1068402145#0" fromLane="0" toLane="0"/>
    <connection from="-1068402145#1" to="1068402146" fromLane="0" toLane="0"/>
    <connection from="-1068402145#1" to="1068402145#1" fromLane="0" toLane="0"/>

    <connection from="-1068402146" to="1068402145#1" fromLane="0" toLane="0"/>
    <connection from="-1068402146" to="-1068402145#0" fromLane="0" toLane="0"/>
    <connection from="-1068402146" to="1068402146" fromLane="0" toLane="0"/>

    <connection from="-1073266068" to="1073266068" fromLane="0" toLane="0"/>

    <connection from="-107825683#1" to="22674191#22" fromLane="0" toLane="0"/>
    <connection from="-107825683#1" to="-22674191#21" fromLane="0" toLane="0"/>
    <connection from="-107825683#1" to="107825683#1" fromLane="0" toLane="0"/>

    <connection from="-107825683#2" to="-107825683#1" fromLane="0" toLane="0"/>

    <connection from="-1087746828" to="30030055#5" fromLane="0" toLane="0" visibility="9.00"/>

    <connection from="-1087932408#0" to="1087932408#0" fromLane="0" toLane="0"/>

    <connection from="-1087932408#2" to="-1087932408#0" fromLane="0" toLane="0"/>
    <connection from="-1087932408#2" to="1337793289" fromLane="0" toLane="0"/>
    <connection from="-1087932408#2" to="1087932408#2" fromLane="0" toLane="0"/>

    <connection from="-1088412618" to="1088412618" fromLane="0" toLane="0"/>

    <connection from="-1088412624#1" to="22674834#11" fromLane="0" toLane="0"/>
    <connection from="-1088412624#1" to="-22674834#10" fromLane="0" toLane="0"/>
    <connection from="-1088412624#1" to="1088412624#1" fromLane="0" toLane="0"/>

    <connection from="-1088778288" to="-122006047#1" fromLane="0" toLane="0"/>
    <connection from="-1088778288" to="122006047#2" fromLane="0" toLane="0"/>
    <connection from="-1088778288" to="1088778288" fromLane="0" toLane="0"/>

    <connection from="-1089413280#0" to="-23773337#6" fromLane="0" toLane="0"/>
    <connection from="-1089413280#0" to="-226573133" fromLane="0" toLane="0"/>
    <connection from="-1089413280#0" to="23773337#7" fromLane="0" toLane="0"/>
    <connection from="-1089413280#0" to="1089413280#0" fromLane="0" toLane="0"/>

    <connection from="-1089413281" to="-1089413280#0" fromLane="0" toLane="0"/>
    <connection from="-1089413281" to="1089413283" fromLane="0" toLane="0"/>
    <connection from="-1089413281" to="1089413280#1" fromLane="0" toLane="0"/>

    <connection from="-1089413284" to="1089413280#1" fromLane="0" toLane="0"/>
    <connection from="-1089413284" to="-1089413280#0" fromLane="0" toLane="0"/>
    <connection from="-1089413284" to="1089413283" fromLane="0" toLane="0"/>

    <connection from="-1089446789#0" to="1089446789#0" fromLane="0" toLane="0"/>

    <connection from="-1089446789#1" to="-1089446789#0" fromLane="0" toLane="0"/>
    <connection from="-1089446789#1" to="1089446789#1" fromLane="0" toLane="0"/>

    <connection from="-1089446803#0" to="22674191#8" fromLane="0" toLane="0"/>
    <connection from="-1089446803#0" to="-22674191#7" fromLane="0" toLane="0"/>
    <connection from="-1089446803#0" to="1089446803#0" fromLane="0" toLane="0"/>

    <connection from="-1089446803#1" to="-1089446803#0" fromLane="0" toLane="0"/>
    <connection from="-1089446803#1" to="1089446803#1" fromLane="0" toLane="0"/>

    <connection from="-1089446804#0" to="-116382868" fromLane="0" toLane="0" keepClear="0"/>

    <connection from="-1089446806#0" to="-1089446804#0" fromLane="0" toLane="0"/>
    <connection from="-1089446806#0" to="1089446804#1" fromLane="0" toLane="0"/>

    <connection from="-1089446806#1" to="-1089446806#0" fromLane="0" toLane="0"/>
    <connection from="-1089446806#1" to="1089446806#1" fromLane="0" toLane="0"/>

    <connection from="-1089446806#2" to="116382850#3" fromLane="0" toLane="0"/>
    <connection from="-1089446806#2" to="-1089446806#1" fromLane="0" toLane="0"/>
    <connection from="-1089446806#2" to="-116382850#2" fromLane="0" toLane="0"/>
    <connection from="-1089446806#2" to="1089446806#2" fromLane="0" toLane="0"/>

    <connection from="-1089446807#0" to="-628784670#1" fromLane="0" toLane="0"/>
    <connection from="-1089446807#0" to="628784670#2" fromLane="0" toLane="0"/>
    <connection from="-1089446807#0" to="1089446807#0" fromLane="0" toLane="0"/>

    <connection from="-1089446809#0" to="-1089446807#0" fromLane="0" toLane="0"/>
    <connection from="-1089446809#0" to="1089446807#1" fromLane="0" toLane="0"/>

    <connection from="-1089446809#1" to="-1089446809#0" fromLane="0" toLane="0"/>
    <connection from="-1089446809#1" to="1089446809#1" fromLane="0" toLane="0"/>

    <connection from="-1089446809#2" to="116382850#2" fromLane="0" toLane="0"/>
    <connection from="-1089446809#2" to="-1089446809#1" fromLane="0" toLane="0"/>
    <connection from="-1089446809#2" to="-116382850#1" fromLane="0" toLane="0"/>
    <connection from="-1089446809#2" to="1089446809#2" fromLane="0" toLane="0"/>

    <connection from="-1089446810" to="-22674882#1" fromLane="0" toLane="0"/>
    <connection from="-1089446810" to="-116382850#3" fromLane="0" toLane="0"/>
    <connection from="-1089446810" to="22674882#2" fromLane="0" toLane="0"/>
    <connection from="-1089446810" to="1089446810" fromLane="0" toLane="0"/>

    <connection from="-1097383929" to="1097383929" fromLane="0" toLane="0"/>

    <connection from="-1097452283" to="1097452283" fromLane="0" toLane="0"/>

    <connection from="-1100736063#1" to="19850936#4" fromLane="0" toLane="0"/>
    <connection from="-1100736063#1" to="641622106#2" fromLane="0" toLane="0"/>
    <connection from="-1100736063#1" to="536930710#0" fromLane="0" toLane="0"/>
    <connection from="-1100736063#1" to="536930706#0" fromLane="0" toLane="0"/>
    <connection from="-1100736063#1" to="-536930704#2" fromLane="0" toLane="0"/>
    <connection from="-1100736063#1" to="1100736063#1" fromLane="0" toLane="0"/>

    <connection from="-1105460066" to="527574265#5" fromLane="0" toLane="0"/>
    <connection from="-1105460066" to="-527574265#4" fromLane="0" toLane="0"/>
    <connection from="-1105460066" to="1105460066" fromLane="0" toLane="0"/>

    <connection from="-1108126460" to="174797121#2" fromLane="0" toLane="0"/>
    <connection from="-1108126460" to="1108126460" fromLane="0" toLane="0"/>

    <connection from="-1108126461" to="174797121#1" fromLane="0" toLane="0"/>
    <connection from="-1108126461" to="1108126461" fromLane="0" toLane="0"/>

    <connection from="-1108126462" to="640500269#5" fromLane="0" toLane="0"/>
    <connection from="-1108126462" to="-640500269#4" fromLane="0" toLane="0"/>
    <connection from="-1108126462" to="1108126462" fromLane="0" toLane="0"/>

    <connection from="-1108126463#0" to="1108126463#0" fromLane="0" toLane="0"/>

    <connection from="-1108126463#1" to="-1108126463#0" fromLane="0" toLane="0"/>
    <connection from="-1108126463#1" to="1108126463#1" fromLane="0" toLane="0"/>

    <connection from="-1108126463#2" to="-1108126463#1" fromLane="0" toLane="0"/>
    <connection from="-1108126463#2" to="1108126464#0" fromLane="0" toLane="0"/>
    <connection from="-1108126463#2" to="1108126463#2" fromLane="0" toLane="0"/>

    <connection from="-1108126464#0" to="1108126463#2" fromLane="0" toLane="0"/>
    <connection from="-1108126464#0" to="-1108126463#1" fromLane="0" toLane="0"/>
    <connection from="-1108126464#0" to="1108126464#0" fromLane="0" toLane="0"/>

    <connection from="-1108126465#0" to="1108126465#0" fromLane="0" toLane="0"/>

    <connection from="-1108126465#1" to="-1108126465#0" fromLane="0" toLane="0"/>
    <connection from="-1108126465#1" to="-1108126467" fromLane="0" toLane="0"/>
    <connection from="-1108126465#1" to="1108126465#1" fromLane="0" toLane="0"/>

    <connection from="-1108126465#2" to="-1108126465#1" fromLane="0" toLane="0"/>
    <connection from="-1108126465#2" to="-1108126466" fromLane="0" toLane="0"/>
    <connection from="-1108126465#2" to="1108126465#2" fromLane="0" toLane="0"/>

    <connection from="-1108126466" to="1122862012#7" fromLane="0" toLane="0"/>
    <connection from="-1108126466" to="-1122862012#6" fromLane="0" toLane="0"/>
    <connection from="-1108126466" to="1108126466" fromLane="0" toLane="0"/>

    <connection from="-1108126467" to="1122862012#8" fromLane="0" toLane="0"/>
    <connection from="-1108126467" to="-1122862012#7" fromLane="0" toLane="0"/>
    <connection from="-1108126467" to="1108126467" fromLane="0" toLane="0"/>

    <connection from="-1108126471#0" to="698068919#0" fromLane="0" toLane="0"/>
    <connection from="-1108126471#0" to="-22723765" fromLane="0" toLane="0"/>
    <connection from="-1108126471#0" to="1108126471#0" fromLane="0" toLane="0"/>

    <connection from="-1108126471#1" to="117919496#2" fromLane="0" toLane="0"/>
    <connection from="-1108126471#1" to="-1108126471#0" fromLane="0" toLane="0"/>

    <connection from="-1108126474#1" to="-1321455283#4" fromLane="0" toLane="0"/>
    <connection from="-1108126474#1" to="-51871744#6" fromLane="0" toLane="0"/>
    <connection from="-1108126474#1" to="51871744#7" fromLane="0" toLane="0"/>
    <connection from="-1108126474#1" to="1321455283#5" fromLane="0" toLane="0"/>
    <connection from="-1108126474#1" to="1108126474#1" fromLane="0" toLane="0"/>

    <connection from="-1108126475#1" to="-581535171#8" fromLane="0" toLane="0"/>
    <connection from="-1108126475#1" to="581535171#9" fromLane="0" toLane="0"/>
    <connection from="-1108126475#1" to="1321455259" fromLane="0" toLane="0"/>
    <connection from="-1108126475#1" to="1108126475#1" fromLane="0" toLane="0"/>

    <connection from="-1108159842" to="116771566#1" fromLane="0" toLane="0"/>
    <connection from="-1108159842" to="24412972#8" fromLane="0" toLane="0"/>
    <connection from="-1108159842" to="1108159842" fromLane="0" toLane="0"/>

    <connection from="-1108375151#1" to="-1321455283#6" fromLane="0" toLane="0"/>
    <connection from="-1108375151#1" to="-51871744#8" fromLane="0" toLane="0"/>
    <connection from="-1108375151#1" to="51871744#9" fromLane="0" toLane="0"/>
    <connection from="-1108375151#1" to="1321455283#7" fromLane="0" toLane="0"/>
    <connection from="-1108375151#1" to="1108375151#1" fromLane="0" toLane="0"/>

    <connection from="-1108375152#1" to="581535171#17" fromLane="0" toLane="0"/>
    <connection from="-1108375152#1" to="-581535171#16" fromLane="0" toLane="0"/>
    <connection from="-1108375152#1" to="1108375152#1" fromLane="0" toLane="0"/>

    <connection from="-1108375152#2" to="-1108375152#1" fromLane="0" toLane="0"/>
    <connection from="-1108375152#2" to="1179952984" fromLane="0" toLane="0"/>
    <connection from="-1108375152#2" to="1108375152#2" fromLane="0" toLane="0"/>

    <connection from="-1108375154#1" to="581535171#14" fromLane="0" toLane="0"/>
    <connection from="-1108375154#1" to="-1020289499" fromLane="0" toLane="0"/>
    <connection from="-1108375154#1" to="-581535171#12" fromLane="0" toLane="0"/>
    <connection from="-1108375154#1" to="1108375154#1" fromLane="0" toLane="0"/>

    <connection from="-1108375156" to="1108375155#1" fromLane="0" toLane="0"/>
    <connection from="-1108375156" to="1108375156" fromLane="0" toLane="0"/>

    <connection from="-1108375157#0" to="581535169#1" fromLane="0" toLane="0" visibility="9.00"/>

    <connection from="-1108375157#1" to="1321455285#2" fromLane="0" toLane="0"/>
    <connection from="-1108375157#1" to="-1108375157#0" fromLane="0" toLane="0"/>
    <connection from="-1108375157#1" to="-1321455285#1" fromLane="0" toLane="0"/>
    <connection from="-1108375157#1" to="1108375157#1" fromLane="0" toLane="0"/>

    <connection from="-1108375157#2" to="-1020289498#7" fromLane="0" toLane="0"/>
    <connection from="-1108375157#2" to="-1108375157#1" fromLane="0" toLane="0"/>
    <connection from="-1108375157#2" to="1020289498#8" fromLane="0" toLane="0"/>
    <connection from="-1108375157#2" to="1108375157#2" fromLane="0" toLane="0"/>

    <connection from="-1108375158" to="172715162#2" fromLane="0" toLane="0"/>
    <connection from="-1108375158" to="-172715162#1" fromLane="0" toLane="0"/>
    <connection from="-1108375158" to="1108375158" fromLane="0" toLane="0"/>

    <connection from="-1108375159" to="-345700250#0" fromLane="0" toLane="0"/>
    <connection from="-1108375159" to="345700250#1" fromLane="0" toLane="0"/>
    <connection from="-1108375159" to="1108375159" fromLane="0" toLane="0"/>

    <connection from="-1108375162" to="45850163#1" fromLane="0" toLane="0"/>
    <connection from="-1108375162" to="-45850163#0" fromLane="0" toLane="0"/>
    <connection from="-1108375162" to="1108375162" fromLane="0" toLane="0"/>

    <connection from="-1108375163#1" to="1122862012#6" fromLane="0" toLane="0"/>
    <connection from="-1108375163#1" to="-1122862012#4" fromLane="0" toLane="0"/>
    <connection from="-1108375163#1" to="1108375163#1" fromLane="0" toLane="0"/>

    <connection from="-1108375163#2" to="-1108375163#1" fromLane="0" toLane="0"/>

    <connection from="-1108375163#3" to="-1108375163#2" fromLane="0" toLane="0"/>

    <connection from="-1108375170" to="202971308#2" fromLane="0" toLane="0"/>
    <connection from="-1108375170" to="-202971308#1" fromLane="0" toLane="0"/>
    <connection from="-1108375170" to="1108375170" fromLane="0" toLane="0"/>

    <connection from="-1115795667#0" to="-1115795667#2" fromLane="0" toLane="0"/>
    <connection from="-1115795667#0" to="-1115795668#1" fromLane="0" toLane="0"/>
    <connection from="-1115795667#0" to="1115795667#0" fromLane="0" toLane="0"/>

    <connection from="-1115795667#1" to="-1115795667#0" fromLane="0" toLane="0"/>
    <connection from="-1115795667#1" to="1115795667#1" fromLane="0" toLane="0"/>

    <connection from="-1115795667#2" to="-1115795667#1" fromLane="0" toLane="0"/>