<?xml version="1.0" encoding="UTF-8"?>

<!-- generated on 2025-04-04 16:25:23 by Eclipse SUMO netconvert Version 1.19.0
<configuration xmlns:xsi="http://www.w3.org/2001/XMLSchema-instance" xsi:noNamespaceSchemaLocation="http://sumo.dlr.de/xsd/netconvertConfiguration.xsd">

    <input>
        <sumo-net-file value="fontenay_en_parisis/fontenay_en_parisis.net.xml"/>
    </input>

    <output>
        <plain-output-prefix value="fontenay_en_parisis/fontenay_en_parisis"/>
    </output>

    <processing>
        <geometry.min-radius.fix.railways value="false"/>
        <geometry.max-grade.fix value="false"/>
        <offset.disable-normalization value="true"/>
        <lefthand value="0"/>
    </processing>

    <tls_building>
        <tls.ignore-internal-junction-jam value="1"/>
    </tls_building>

    <junctions>
        <no-turnarounds value="true"/>
        <junctions.corner-detail value="5"/>
        <junctions.limit-turn-speed value="5.50"/>
        <rectangular-lane-cut value="0"/>
    </junctions>

    <pedestrian>
        <walkingareas value="0"/>
    </pedestrian>

</configuration>
-->

<connections version="1.16" xmlns:xsi="http://www.w3.org/2001/XMLSchema-instance" xsi:noNamespaceSchemaLocation="http://sumo.dlr.de/xsd/connections_file.xsd">
    <connection from="-1000122424" to="23116358#5" fromLane="0" toLane="0"/>
    <connection from="-1000122424" to="-23116358#4" fromLane="0" toLane="0"/>
    <connection from="-1000122424" to="1000122424" fromLane="0" toLane="0"/>

    <connection from="-1007133843" to="18958191#2" fromLane="0" toLane="0"/>
    <connection from="-1007133843" to="-18958191#1" fromLane="0" toLane="0"/>
    <connection from="-1007133843" to="1007133843" fromLane="0" toLane="0"/>

    <connection from="-1007133844" to="654422163#1" fromLane="0" toLane="0"/>
    <connection from="-1007133844" to="-654422163#0" fromLane="0" toLane="0"/>
    <connection from="-1007133844" to="1007133844" fromLane="0" toLane="0"/>

    <connection from="-1007133845" to="1007133846#1" fromLane="0" toLane="0"/>
    <connection from="-1007133845" to="-1007133846#0" fromLane="0" toLane="0"/>
    <connection from="-1007133845" to="1007133845" fromLane="0" toLane="0"/>

    <connection from="-1007133846#0" to="1007133846#0" fromLane="0" toLane="0"/>

    <connection from="-1007133846#1" to="-1007133846#0" fromLane="0" toLane="0"/>
    <connection from="-1007133846#1" to="1007133845" fromLane="0" toLane="0"/>
    <connection from="-1007133846#1" to="1007133846#1" fromLane="0" toLane="0"/>

    <connection from="-1007133846#2" to="-1007133846#1" fromLane="0" toLane="0"/>
    <connection from="-1007133846#2" to="-1007133845" fromLane="0" toLane="0"/>
    <connection from="-1007133846#2" to="1007133846#2" fromLane="0" toLane="0"/>

    <connection from="-1007133849" to="1007133850#1" fromLane="0" toLane="0"/>
    <connection from="-1007133849" to="-1007133850#0" fromLane="0" toLane="0"/>
    <connection from="-1007133849" to="1007133849" fromLane="0" toLane="0"/>

    <connection from="-1007133850#0" to="-405079621#0" fromLane="0" toLane="0"/>
    <connection from="-1007133850#0" to="405079621#1" fromLane="0" toLane="0"/>
    <connection from="-1007133850#0" to="1007133850#0" fromLane="0" toLane="0"/>

    <connection from="-1007133850#1" to="-1007133850#0" fromLane="0" toLane="0"/>
    <connection from="-1007133850#1" to="1007133849" fromLane="0" toLane="0"/>

    <connection from="-1007133851" to="-19092839#0" fromLane="0" toLane="0"/>
    <connection from="-1007133851" to="19092839#1" fromLane="0" toLane="0"/>
    <connection from="-1007133851" to="1007133851" fromLane="0" toLane="0"/>

    <connection from="-1007133856" to="1060293639#1" fromLane="0" toLane="0"/>
    <connection from="-1007133856" to="1007133856" fromLane="0" toLane="0"/>

    <connection from="-1007133857" to="1060293639#2" fromLane="0" toLane="0"/>
    <connection from="-1007133857" to="1007133857" fromLane="0" toLane="0"/>

    <connection from="-1007133858" to="-18953509#0" fromLane="0" toLane="0"/>
    <connection from="-1007133858" to="18953509#1" fromLane="0" toLane="0"/>
    <connection from="-1007133858" to="1007133858" fromLane="0" toLane="0"/>

    <connection from="-1007133859" to="-18953528#0" fromLane="0" toLane="0"/>
    <connection from="-1007133859" to="1007133860" fromLane="0" toLane="0"/>
    <connection from="-1007133859" to="18953528#2" fromLane="0" toLane="0"/>
    <connection from="-1007133859" to="1007133859" fromLane="0" toLane="0"/>

    <connection from="-1007133860" to="18953528#2" fromLane="0" toLane="0"/>
    <connection from="-1007133860" to="1007133859" fromLane="0" toLane="0"/>
    <connection from="-1007133860" to="-18953528#0" fromLane="0" toLane="0"/>
    <connection from="-1007133860" to="1007133860" fromLane="0" toLane="0"/>

    <connection from="-1007133861" to="-18953509#3" fromLane="0" toLane="0"/>
    <connection from="-1007133861" to="18953509#4" fromLane="0" toLane="0"/>
    <connection from="-1007133861" to="1007133861" fromLane="0" toLane="0"/>

    <connection from="-1011280619#0" to="1251710055" fromLane="0" toLane="0"/>
    <connection from="-1011280619#0" to="-31057087#1" fromLane="0" toLane="0"/>

    <connection from="-1011280619#1" to="18958868" fromLane="0" toLane="0"/>
    <connection from="-1011280619#1" to="-1011280619#0" fromLane="0" toLane="0"/>
    <connection from="-1011280619#1" to="1011280619#1" fromLane="0" toLane="0"/>

    <connection from="-1011280620" to="1047606011" fromLane="0" toLane="0" keepClear="0"/>

    <connection from="-1011280621#1" to="1027063769" fromLane="0" toLane="0"/>
    <connection from="-1011280621#1" to="-31057089" fromLane="0" toLane="0"/>
    <connection from="-1011280621#1" to="1011280621#1" fromLane="0" toLane="0"/>

    <connection from="-1015402481" to="-536493311#1" fromLane="0" toLane="0"/>
    <connection from="-1015402481" to="1110802566" fromLane="0" toLane="0"/>
    <connection from="-1015402481" to="1015402481" fromLane="0" toLane="0"/>

    <connection from="-1017995566" to="-424743987" fromLane="0" toLane="0"/>
    <connection from="-1017995566" to="1017995566" fromLane="0" toLane="0"/>

    <connection from="-1021621426#0" to="19093878" fromLane="0" toLane="0"/>
    <connection from="-1021621426#0" to="-23341103#1" fromLane="0" toLane="0"/>
    <connection from="-1021621426#0" to="1021621426#0" fromLane="0" toLane="0"/>

    <connection from="-1021621427#0" to="-32725754#3" fromLane="0" toLane="0"/>
    <connection from="-1021621427#0" to="32725754#4" fromLane="0" toLane="0"/>

    <connection from="-1021621427#1" to="19093705" fromLane="0" toLane="0"/>
    <connection from="-1021621427#1" to="-1021621427#0" fromLane="0" toLane="0"/>
    <connection from="-1021621427#1" to="1021621427#1" fromLane="0" toLane="0"/>

    <connection from="-1021621427#2" to="19093697#0" fromLane="0" toLane="0"/>
    <connection from="-1021621427#2" to="-1021621427#1" fromLane="0" toLane="0"/>
    <connection from="-1021621427#2" to="1021621427#2" fromLane="0" toLane="0"/>

    <connection from="-1021621427#3" to="-1021621427#2" fromLane="0" toLane="0"/>
    <connection from="-1021621427#3" to="-911531607#3" fromLane="0" toLane="0"/>

    <connection from="-1021621427#4" to="-1021621427#3" fromLane="0" toLane="0"/>

    <connection from="-1021621428" to="-1021621429" fromLane="0" toLane="0"/>
    <connection from="-1021621428" to="-19093171" fromLane="0" toLane="0"/>
    <connection from="-1021621428" to="1021621428" fromLane="0" toLane="0"/>

    <connection from="-1021621429" to="-1021621430#0" fromLane="0" toLane="0"/>
    <connection from="-1021621429" to="-1021621431" fromLane="0" toLane="0"/>
    <connection from="-1021621429" to="1021621430#1" fromLane="0" toLane="0"/>

    <connection from="-1021621430#0" to="-32725755#0" fromLane="0" toLane="0"/>
    <connection from="-1021621430#0" to="19094566" fromLane="0" toLane="0"/>
    <connection from="-1021621430#0" to="32725755#1" fromLane="0" toLane="0"/>

    <connection from="-1021621431" to="-19094067#1" fromLane="0" toLane="0"/>
    <connection from="-1021621431" to="1024002448" fromLane="0" toLane="0"/>
    <connection from="-1021621431" to="19094067#2" fromLane="0" toLane="0"/>

    <connection from="-1021621433" to="1021621434" fromLane="0" toLane="0"/>
    <connection from="-1021621433" to="19094570" fromLane="0" toLane="0"/>

    <connection from="-1021669703" to="-70118557#2" fromLane="0" toLane="0"/>
    <connection from="-1021669703" to="70118557#3" fromLane="0" toLane="0"/>
    <connection from="-1021669703" to="1021669703" fromLane="0" toLane="0"/>

    <connection from="-1024002445" to="1024002444" fromLane="0" toLane="0"/>
    <connection from="-1024002445" to="-19094122#0" fromLane="0" toLane="0"/>
    <connection from="-1024002445" to="19094122#1" fromLane="0" toLane="0"/>

    <connection from="-1024002447" to="-1024002445" fromLane="0" toLane="0"/>

    <connection from="-1024002448" to="19094067#2" fromLane="0" toLane="0"/>
    <connection from="-1024002448" to="-19094067#1" fromLane="0" toLane="0"/>
    <connection from="-1024002448" to="1024002448" fromLane="0" toLane="0"/>

    <connection from="-1024002449" to="19094600#2" fromLane="0" toLane="0"/>
    <connection from="-1024002449" to="-19094600#1" fromLane="0" toLane="0"/>
    <connection from="-1024002449" to="1024002449" fromLane="0" toLane="0"/>

    <connection from="-1024002450" to="-19094058#0" fromLane="0" toLane="0"/>
    <connection from="-1024002450" to="-1024002455#0" fromLane="0" toLane="0"/>
    <connection from="-1024002450" to="19094058#1" fromLane="0" toLane="0"/>
    <connection from="-1024002450" to="1024002455#1" fromLane="0" toLane="0"/>

    <connection from="-1024002452" to="1024002455#1" fromLane="0" toLane="0"/>
    <connection from="-1024002452" to="-19094058#0" fromLane="0" toLane="0"/>
    <connection from="-1024002452" to="-1024002455#0" fromLane="0" toLane="0"/>
    <connection from="-1024002452" to="19094058#1" fromLane="0" toLane="0"/>

    <connection from="-1024002454" to="-1024002450" fromLane="0" toLane="0"/>

    <connection from="-1024002455#0" to="-19094600#2" fromLane="0" toLane="0"/>

    <connection from="-1024002456#0" to="-1024002452" fromLane="0" toLane="0"/>

    <connection from="-1024002456#1" to="-19094575" fromLane="0" toLane="0"/>
    <connection from="-1024002456#1" to="-1024002456#0" fromLane="0" toLane="0"/>
    <connection from="-1024002456#1" to="1024002456#1" fromLane="0" toLane="0"/>

    <connection from="-1024002457#0" to="20556807#3" fromLane="0" toLane="0"/>
    <connection from="-1024002457#0" to="1024002457#0" fromLane="0" toLane="0"/>

    <connection from="-1024002457#1" to="-557503638" fromLane="0" toLane="0"/>
    <connection from="-1024002457#1" to="-1024002457#0" fromLane="0" toLane="0"/>
    <connection from="-1024002457#1" to="1024002457#1" fromLane="0" toLane="0"/>

    <connection from="-1025932324" to="-70086887#1" fromLane="0" toLane="0"/>

    <connection from="-1025932325" to="-22794036#5" fromLane="0" toLane="0"/>
    <connection from="-1025932325" to="788054930" fromLane="0" toLane="0"/>

    <connection from="-1027063762" to="-70118566#8" fromLane="0" toLane="0"/>
    <connection from="-1027063762" to="31057087#0" fromLane="0" toLane="0"/>
    <connection from="-1027063762" to="1027063762" fromLane="0" toLane="0"/>

    <connection from="-1027063764" to="1027063764" fromLane="0" toLane="0"/>

    <connection from="-1027063767" to="-19104044#1" fromLane="0" toLane="0"/>

    <connection from="-1030743533#0" to="19107226#0" fromLane="0" toLane="0"/>
    <connection from="-1030743533#0" to="-19107185" fromLane="0" toLane="0"/>
    <connection from="-1030743533#0" to="1030743533#0" fromLane="0" toLane="0"/>

    <connection from="-1030743533#1" to="-1030743533#0" fromLane="0" toLane="0"/>
    <connection from="-1030743533#1" to="1030743533#1" fromLane="0" toLane="0"/>

    <connection from="-1030743533#2" to="-1030743533#1" fromLane="0" toLane="0"/>
    <connection from="-1030743533#2" to="1030743533#2" fromLane="0" toLane="0"/>

    <connection from="-1030743535#1" to="-70118563#0" fromLane="0" toLane="0"/>
    <connection from="-1030743535#1" to="70118563#2" fromLane="0" toLane="0"/>
    <connection from="-1030743535#1" to="1030743535#1" fromLane="0" toLane="0"/>

    <connection from="-1037360115" to="50292269" fromLane="0" toLane="0"/>
    <connection from="-1037360115" to="-19107389#1" fromLane="0" toLane="0"/>
    <connection from="-1037360115" to="1037360115" fromLane="0" toLane="0"/>

    <connection from="-1039191937" to="22754090" fromLane="0" toLane="0"/>
    <connection from="-1039191937" to="1039191937" fromLane="0" toLane="0"/>

    <connection from="-1039191938" to="1039191939" fromLane="0" toLane="0"/>
    <connection from="-1039191938" to="1039191938" fromLane="0" toLane="0"/>

    <connection from="-1039191940#0" to="-13706392#1" fromLane="0" toLane="0"/>

    <connection from="-1039191940#1" to="-1039191940#0" fromLane="0" toLane="0"/>

    <connection from="-1039191940#2" to="-1039191940#1" fromLane="0" toLane="0"/>

    <connection from="-1039612345" to="-31057086#0" fromLane="0" toLane="0"/>

    <connection from="-1039612350" to="-18954476#0" fromLane="0" toLane="0"/>
    <connection from="-1039612350" to="1039612349" fromLane="0" toLane="0"/>
    <connection from="-1039612350" to="18954476#1" fromLane="0" toLane="0"/>

    <connection from="-1039612353#0" to="18954451#3" fromLane="0" toLane="0" visibility="9.00"/>

    <connection from="-1039612355" to="-31057089" fromLane="0" toLane="0"/>
    <connection from="-1039612355" to="1011280621#1" fromLane="0" toLane="0"/>
    <connection from="-1039612355" to="1027063769" fromLane="0" toLane="0"/>

    <connection from="-1039612356" to="-1039612357" fromLane="0" toLane="0"/>

    <connection from="-1039612357" to="-18958786#1" fromLane="0" toLane="0"/>

    <connection from="-1039612358" to="-1039612359" fromLane="0" toLane="0"/>

    <connection from="-1039612359" to="-18958904#0" fromLane="0" toLane="0"/>
    <connection from="-1039612359" to="-1039612356" fromLane="0" toLane="0"/>
    <connection from="-1039612359" to="18958904#1" fromLane="0" toLane="0"/>
    <connection from="-1039612359" to="1039612359" fromLane="0" toLane="0"/>

    <connection from="-1039918444" to="23199226" fromLane="0" toLane="0"/>
    <connection from="-1039918444" to="1039918446" fromLane="0" toLane="0"/>
    <connection from="-1039918444" to="-18953528#2" fromLane="0" toLane="0"/>
    <connection from="-1039918444" to="1039918444" fromLane="0" toLane="0"/>

    <connection from="-1039918445#0" to="18953043#4" fromLane="0" toLane="0" visibility="9.00"/>

    <connection from="-1039918445#2" to="1136521603#1" fromLane="0" toLane="0"/>
    <connection from="-1039918445#2" to="-1039918445#0" fromLane="0" toLane="0"/>
    <connection from="-1039918445#2" to="-1136521603#0" fromLane="0" toLane="0"/>

    <connection from="-1039918445#3" to="50304985#0" fromLane="0" toLane="0"/>
    <connection from="-1039918445#3" to="-1039918445#2" fromLane="0" toLane="0"/>
    <connection from="-1039918445#3" to="1060293639#0" fromLane="0" toLane="0"/>
    <connection from="-1039918445#3" to="1039918445#3" fromLane="0" toLane="0"/>

    <connection from="-1039925439" to="1039925439" fromLane="0" toLane="0"/>

    <connection from="-1047606011" to="1011280620" fromLane="0" toLane="0"/>
    <connection from="-1047606011" to="1047606011" fromLane="0" toLane="0"/>

    <connection from="-1047606896#0" to="1078998883" fromLane="0" toLane="0"/>

    <connection from="-1047606896#1" to="-46964650#5" fromLane="0" toLane="0"/>
    <connection from="-1047606896#1" to="1070946148#0" fromLane="0" toLane="0"/>
    <connection from="-1047606896#1" to="-1047606896#0" fromLane="0" toLane="0"/>
    <connection from="-1047606896#1" to="508809849" fromLane="0" toLane="0"/>
    <connection from="-1047606896#1" to="1047606896#1" fromLane="0" toLane="0"/>

    <connection from="-1047681664" to="1098814999#1" fromLane="0" toLane="0"/>
    <connection from="-1047681664" to="362373619" fromLane="0" toLane="0"/>
    <connection from="-1047681664" to="-1098814999#0" fromLane="0" toLane="0"/>
    <connection from="-1047681664" to="1047681664" fromLane="0" toLane="0"/>

    <connection from="-1047681681" to="50303834#1" fromLane="0" toLane="0"/>
    <connection from="-1047681681" to="-50303834#0" fromLane="0" toLane="0"/>
    <connection from="-1047681681" to="1047681681" fromLane="0" toLane="0"/>

    <connection from="-1052829127#0" to="-18823884#2" fromLane="0" toLane="0"/>
    <connection from="-1052829127#0" to="18823884#4" fromLane="0" toLane="0"/>
    <connection from="-1052829127#0" to="1052829127#0" fromLane="0" toLane="0"/>

    <connection from="-1052829127#1" to="-1052829127#0" fromLane="0" toLane="0"/>

    <connection from="-1052829127#2" to="-1052829127#1" fromLane="0" toLane="0"/>

    <connection from="-1052829129" to="-22889227#1" fromLane="0" toLane="0"/>
    <connection from="-1052829129" to="22889227#2" fromLane="0" toLane="0"/>
    <connection from="-1052829129" to="1052829129" fromLane="0" toLane="0"/>

    <connection from="-1062413274" to="1353254013#2" fromLane="0" toLane="0"/>
    <connection from="-1062413274" to="-1353254013#1" fromLane="0" toLane="0"/>
    <connection from="-1062413274" to="1062413276" fromLane="0" toLane="0"/>

    <connection from="-1062413277" to="341049500#1" fromLane="0" toLane="0"/>
    <connection from="-1062413277" to="-341049500#0" fromLane="0" toLane="0"/>
    <connection from="-1062413277" to="1062413277" fromLane="0" toLane="0"/>

    <connection from="-1062413278" to="1062413279#1" fromLane="0" toLane="0"/>
    <connection from="-1062413278" to="-1062413279#0" fromLane="0" toLane="0"/>
    <connection from="-1062413278" to="1062413278" fromLane="0" toLane="0"/>

    <connection from="-1062413279#0" to="51421552#4" fromLane="0" toLane="0"/>
    <connection from="-1062413279#0" to="-51421552#3" fromLane="0" toLane="0"/>
    <connection from="-1062413279#0" to="1062413279#0" fromLane="0" toLane="0"/>

    <connection from="-1062413279#1" to="-1062413279#0" fromLane="0" toLane="0"/>
    <connection from="-1062413279#1" to="1062413278" fromLane="0" toLane="0"/>
    <connection from="-1062413279#1" to="1062413279#1" fromLane="0" toLane="0"/>

    <connection from="-1064573477" to="1064573477" fromLane="0" toLane="0"/>

    <connection from="-1076158082" to="-19092777#0" fromLane="0" toLane="0"/>
    <connection from="-1076158082" to="-1136521599#0" fromLane="0" toLane="0"/>
    <connection from="-1076158082" to="19092777#3" fromLane="0" toLane="0"/>
    <connection from="-1076158082" to="1136521599#1" fromLane="0" toLane="0"/>

    <connection from="-1077052305#0" to="-384948689#1" fromLane="0" toLane="0"/>
    <connection from="-1077052305#0" to="13865478#0" fromLane="0" toLane="0"/>

    <connection from="-1077052305#2" to="-1077052305#0" fromLane="0" toLane="0"/>
    <connection from="-1077052305#2" to="977492542" fromLane="0" toLane="0"/>
    <connection from="-1077052305#2" to="1077052305#2" fromLane="0" toLane="0"/>

    <connection from="-1077052305#3" to="-1077052305#2" fromLane="0" toLane="0"/>
    <connection from="-1077052305#3" to="1077052305#3" fromLane="0" toLane="0"/>

    <connection from="-1077052305#4" to="-1077052305#3" fromLane="0" toLane="0"/>

    <connection from="-1078738445" to="128843026#1" fromLane="0" toLane="0" visibility="9.00"/>

    <connection from="-1078738446" to="1078738441#1" fromLane="0" toLane="0"/>
    <connection from="-1078738446" to="128843243" fromLane="0" toLane="0"/>
    <connection from="-1078738446" to="1078738446" fromLane="0" toLane="0"/>

    <connection from="-1078738449" to="1078738448" fromLane="0" toLane="0"/>

    <connection from="-1078998884#0" to="1078998887" fromLane="0" toLane="0"/>
    <connection from="-1078998884#0" to="1136521598#2" fromLane="0" toLane="0"/>
    <connection from="-1078998884#0" to="1078998894#1" fromLane="0" toLane="0"/>
    <connection from="-1078998884#0" to="-1354736035" fromLane="0" toLane="0"/>
    <connection from="-1078998884#0" to="1078998884#0" fromLane="0" toLane="0"/>

    <connection from="-1078998884#1" to="-1078998884#0" fromLane="0" toLane="0"/>
    <connection from="-1078998884#1" to="1078998884#1" fromLane="0" toLane="0"/>

    <connection from="-1078998888#0" to="1078998891" fromLane="0" toLane="0"/>
    <connection from="-1078998888#0" to="-1078998890#1" fromLane="0" toLane="0"/>
    <connection from="-1078998888#0" to="1078998888#0" fromLane="0" toLane="0"/>

    <connection from="-1078998888#1" to="-1078998888#0" fromLane="0" toLane="0"/>

    <connection from="-1078998890#0" to="1136521598#2" fromLane="0" toLane="0"/>
    <connection from="-1078998890#0" to="1078998894#1" fromLane="0" toLane="0"/>
    <connection from="-1078998890#0" to="1078998887" fromLane="0" toLane="0"/>

    <connection from="-1078998890#1" to="-1078998890#0" fromLane="0" toLane="0"/>
    <connection from="-1078998890#1" to="1078998890#1" fromLane="0" toLane="0"/>

    <connection from="-1078998895#0" to="-1136521606#2" fromLane="0" toLane="0"/>
    <connection from="-1078998895#0" to="1078998895#0" fromLane="0" toLane="0"/>

    <connection from="-1078998895#1" to="340663116#1" fromLane="0" toLane="0"/>
    <connection from="-1078998895#1" to="-1078998895#0" fromLane="0" toLane="0"/>
    <connection from="-1078998895#1" to="1078998895#1" fromLane="0" toLane="0"/>

    <connection from="-1078998899" to="1078998899" fromLane="0" toLane="0"/>

    <connection from="-1078998915" to="1077052297#1" fromLane="0" toLane="0"/>
    <connection from="-1078998915" to="1078998915" fromLane="0" toLane="0"/>

    <connection from="-1084739491" to="1136521610#0" fromLane="0" toLane="0"/>
    <connection from="-1084739491" to="-1136521608" fromLane="0" toLane="0"/>
    <connection from="-1084739491" to="1084739491" fromLane="0" toLane="0"/>

    <connection from="-1092616467#0" to="179993229#1" fromLane="0" toLane="0"/>
    <connection from="-1092616467#0" to="1092616481#0" fromLane="0" toLane="0"/>
    <connection from="-1092616467#0" to="-179993229#0" fromLane="0" toLane="0"/>

    <connection from="-1092616467#1" to="967374656#1" fromLane="0" toLane="0"/>
    <connection from="-1092616467#1" to="-1092616467#0" fromLane="0" toLane="0"/>
    <connection from="-1092616467#1" to="-967374656#0" fromLane="0" toLane="0"/>
    <connection from="-1092616467#1" to="1092616467#1" fromLane="0" toLane="0"/>

    <connection from="-1092616481#0" to="-179993229#0" fromLane="0" toLane="0"/>
    <connection from="-1092616481#0" to="179993229#1" fromLane="0" toLane="0"/>
    <connection from="-1092616481#0" to="1092616481#0" fromLane="0" toLane="0"/>

    <connection from="-1092616481#1" to="-1092616481#0" fromLane="0" toLane="0"/>
    <connection from="-1092616481#1" to="1253284047" fromLane="0" toLane="0"/>
    <connection from="-1092616481#1" to="1092616481#1" fromLane="0" toLane="0"/>

    <connection from="-1092616481#2" to="-1092616481#1" fromLane="0" toLane="0"/>
    <connection from="-1092616481#2" to="1092616481#2" fromLane="0" toLane="0"/>

    <connection from="-1095416330#0" to="-1095416331#0" fromLane="0" toLane="0"/>
    <connection from="-1095416330#0" to="1095416331#1" fromLane="0" toLane="0"/>
    <connection from="-1095416330#0" to="1095416330#0" fromLane="0" toLane="0"/>

    <connection from="-1095416330#1" to="-1095416330#0" fromLane="0" toLane="0"/>
    <connection from="-1095416330#1" to="1095416330#1" fromLane="0" toLane="0"/>

    <connection from="-1095416331#0" to="909164378#3" fromLane="0" toLane="0"/>
    <connection from="-1095416331#0" to="-909164378#2" fromLane="0" toLane="0"/>
    <connection from="-1095416331#0" to="1095416331#0" fromLane="0" toLane="0"/>

    <connection from="-1095416331#1" to="1095416330#0" fromLane="0" toLane="0"/>
    <connection from="-1095416331#1" to="-1095416331#0" fromLane="0" toLane="0"/>
    <connection from="-1095416331#1" to="1095416331#1" fromLane="0" toLane="0"/>

    <connection from="-1095416331#2" to="-1095416331#1" fromLane="0" toLane="0"/>
    <connection from="-1095416331#2" to="1095416331#2" fromLane="0" toLane="0"/>

    <connection from="-1095416332#0" to="-909164378#3" fromLane="0" toLane="0"/>
    <connection from="-1095416332#0" to="909164378#4" fromLane="0" toLane="0"/>

    <connection from="-1095416365" to="1086207346#3" fromLane="0" toLane="0"/>
    <connection from="-1095416365" to="1095416365" fromLane="0" toLane="0"/>

    <connection from="-1095702632#0" to="-31407537#1" fromLane="0" toLane="0"/>

    <connection from="-1097492774" to="-1253795137#6" fromLane="0" toLane="0"/>
    <connection from="-1097492774" to="-808799852#1" fromLane="0" toLane="0"/>
    <connection from="-1097492774" to="945692759#0" fromLane="0" toLane="0"/>
    <connection from="-1097492774" to="808799854#0" fromLane="0" toLane="0"/>
    <connection from="-1097492774" to="1097492774" fromLane="0" toLane="0"/>

    <connection from="-1097492777" to="-808799855#2" fromLane="0" toLane="0"/>
    <connection from="-1097492777" to="808799855#3" fromLane="0" toLane="0"/>
    <connection from="-1097492777" to="1097492777" fromLane="0" toLane="0"/>

    <connection from="-1097492784" to="808799858#2" fromLane="0" toLane="0"/>
    <connection from="-1097492784" to="-808799858#1" fromLane="0" toLane="0"/>
    <connection from="-1097492784" to="1232128622" fromLane="0" toLane="0"/>

    <connection from="-1097492787" to="-808799855#3" fromLane="0" toLane="0"/>
    <connection from="-1097492787" to="808799855#4" fromLane="0" toLane="0"/>
    <connection from="-1097492787" to="1097492788#1" fromLane="0" toLane="0"/>
    <connection from="-1097492787" to="1097492787" fromLane="0" toLane="0"/>

    <connection from="-1097492788#1" to="1097492787" fromLane="0" toLane="0"/>
    <connection from="-1097492788#1" to="-808799855#3" fromLane="0" toLane="0"/>
    <connection from="-1097492788#1" to="808799855#4" fromLane="0" toLane="0"/>
    <connection from="-1097492788#1" to="1097492788#1" fromLane="0" toLane="0"/>

    <connection from="-1098814998#2" to="1136521676#1" fromLane="0" toLane="0"/>
    <connection from="-1098814998#2" to="1046344844#0" fromLane="0" toLane="0"/>
    <connection from="-1098814998#2" to="945990333#0" fromLane="0" toLane="0"/>
    <connection from="-1098814998#2" to="-1047681664" fromLane="0" toLane="0"/>
    <connection from="-1098814998#2" to="1098814998#2" fromLane="0" toLane="0"/>

    <connection from="-1098814999#0" to="-305252726" fromLane="0" toLane="0" keepClear="0"/>

    <connection from="-1098814999#1" to="362373619" fromLane="0" toLane="0"/>
    <connection from="-1098814999#1" to="-1098814999#0" fromLane="0" toLane="0"/>
    <connection from="-1098814999#1" to="1047681664" fromLane="0" toLane="0"/>
    <connection from="-1098814999#1" to="1098814999#1" fromLane="0" toLane="0"/>

    <connection from="-1098822659" to="46964650#5" fromLane="0" toLane="0"/>
    <connection from="-1098822659" to="-46964650#4" fromLane="0" toLane="0"/>
    <connection from="-1098822659" to="1098822659" fromLane="0" toLane="0"/>

    <connection from="-1099660236" to="945139990#0" fromLane="0" toLane="0"/>
    <connection from="-1099660236" to="1099660236" fromLane="0" toLane="0"/>

    <connection from="-1099660237#0" to="926802933#3" fromLane="0" toLane="0"/>
    <connection from="-1099660237#0" to="373088517#1" fromLane="0" toLane="0"/>
    <connection from="-1099660237#0" to="-926802933#0" fromLane="0" toLane="0"/>
    <connection from="-1099660237#0" to="373088519#0" fromLane="0" toLane="0"/>
    <connection from="-1099660237#0" to="1099660237#0" fromLane="0" toLane="0"/>

    <connection from="-1099660237#2" to="373088519#1" fromLane="0" toLane="0"/>
    <connection from="-1099660237#2" to="-1137206655#2" fromLane="0" toLane="0"/>
    <connection from="-1099660237#2" to="-1099660237#0" fromLane="0" toLane="0"/>
    <connection from="-1099660237#2" to="-373088519#0" fromLane="0" toLane="0"/>
    <connection from="-1099660237#2" to="1099660237#2" fromLane="0" toLane="0"/>

    <connection from="-1109076477#0" to="424742249#0" fromLane="0" toLane="0"/>
    <connection from="-1109076477#0" to="-702475481" fromLane="0" toLane="0"/>
    <connection from="-1109076477#0" to="424916055" fromLane="0" toLane="0"/>
    <connection from="-1109076477#0" to="1109076477#0" fromLane="0" toLane="0"/>

    <connection from="-1109076477#1" to="-1109076477#0" fromLane="0" toLane="0"/>

    <connection from="-1110724891#0" to="-180630792#0" fromLane="0" toLane="0"/>
    <connection from="-1110724891#0" to="372644462" fromLane="0" toLane="0"/>
    <connection from="-1110724891#0" to="1110724891#0" fromLane="0" toLane="0"/>

    <connection from="-1110724891#1" to="-1110724891#0" fromLane="0" toLane="0"/>
    <connection from="-1110724891#1" to="-1110724891#2" fromLane="0" toLane="0"/>
    <connection from="-1110724891#1" to="1110724891#1" fromLane="0" toLane="0"/>

    <connection from="-1110724891#2" to="-1110724891#1" fromLane="0" toLane="0"/>

    <connection from="-1110724893" to="372644463#0" fromLane="0" toLane="0"/>
    <connection from="-1110724893" to="-372644461" fromLane="0" toLane="0"/>
    <connection from="-1110724893" to="1110724893" fromLane="0" toLane="0"/>

    <connection from="-1110724894" to="-1110724893" fromLane="0" toLane="0" keepClear="0"/>
    <connection from="-1110724894" to="1110724894" fromLane="0" toLane="0"/>

    <connection from="-1110724895#0" to="180630792#0" fromLane="0" toLane="0" keepClear="0"/>

    <connection from="-1110724895#1" to="-1110724894" fromLane="0" toLane="0"/>
    <connection from="-1110724895#1" to="-1110724895#0" fromLane="0" toLane="0"/>
    <connection from="-1110724895#1" to="1110724895#1" fromLane="0" toLane="0"/>
