<?xml version="1.0" encoding="UTF-8"?>

<!-- generated on 2025-04-04 16:25:23 by Eclipse SUMO netconvert Version 1.19.0
<configuration xmlns:xsi="http://www.w3.org/2001/XMLSchema-instance" xsi:noNamespaceSchemaLocation="http://sumo.dlr.de/xsd/netconvertConfiguration.xsd">

    <input>
        <sumo-net-file value="fontenay_en_parisis/fontenay_en_parisis.net.xml"/>
    </input>

    <output>
        <plain-output-prefix value="fontenay_en_parisis/fontenay_en_parisis"/>
    </output>

    <processing>
        <geometry.min-radius.fix.railways value="false"/>
        <geometry.max-grade.fix value="false"/>
        <offset.disable-normalization value="true"/>
        <lefthand value="0"/>
    </processing>

    <tls_building>
        <tls.ignore-internal-junction-jam value="1"/>
    </tls_building>

    <junctions>
        <no-turnarounds value="true"/>
        <junctions.corner-detail value="5"/>
        <junctions.limit-turn-speed value="5.50"/>
        <rectangular-lane-cut value="0"/>
    </junctions>

    <pedestrian>
        <walkingareas value="0"/>
    </pedestrian>

</configuration>
-->

<edges version="1.16" xmlns:xsi="http://www.w3.org/2001/XMLSchema-instance" xsi:noNamespaceSchemaLocation="http://sumo.dlr.de/xsd/edges_file.xsd">
    <location netOffset="-456526.72,-5429012.58" convBoundary="0.00,0.00,9034.46,11056.90" origBoundary="1.932246,48.983970,2.575362,49.112513" projParameter="+proj=utm +zone=31 +ellps=WGS84 +datum=WGS84 +units=m +no_defs"/>

    <edge id="-1000122424" from="cluster_196244150_9231920475" to="9231920476" priority="1" type="highway.service" numLanes="1" speed="5.56" shape="4243.48,2525.20 4239.11,2522.73 4236.63,2519.71 4236.22,2516.78 4238.53,2510.03 4241.12,2505.03 4250.20,2505.84 4274.90,2465.40 4267.23,2464.66 4270.32,2459.26 4273.62,2454.26 4281.75,2453.41 4288.23,2454.04" allow="pedestrian delivery bicycle"/>
    <edge id="-1007133843" from="9291253815" to="9291253816" priority="1" type="highway.service" numLanes="1" speed="5.56" allow="pedestrian delivery bicycle"/>
    <edge id="-1007133844" from="9291337517" to="9291337518" priority="1" type="highway.service" numLanes="1" speed="5.56" allow="pedestrian delivery bicycle"/>
    <edge id="-1007133845" from="9291337540" to="9291337527" priority="1" type="highway.service" numLanes="1" speed="5.56" shape="3845.12,2602.55 3830.29,2626.40 3829.34,2629.93 3830.24,2632.56 3833.99,2635.67 3839.29,2636.70 3844.36,2633.83 3879.26,2578.16" allow="pedestrian delivery bicycle"/>
    <edge id="-1007133846#0" from="9291337527" to="9291337526" priority="1" type="highway.service" numLanes="1" speed="5.56" allow="pedestrian delivery bicycle"/>
    <edge id="-1007133846#1" from="9291337540" to="9291337527" priority="1" type="highway.service" numLanes="1" speed="5.56" shape="3845.12,2602.55 3864.79,2570.35 3868.21,2568.37 3878.44,2573.68 3879.26,2578.16" allow="pedestrian delivery bicycle"/>
    <edge id="-1007133846#2" from="9291337539" to="9291337540" priority="1" type="highway.service" numLanes="1" speed="5.56" allow="pedestrian delivery bicycle"/>
    <edge id="-1007133849" from="9291337548" to="9291337554" priority="1" type="highway.service" numLanes="1" speed="5.56" shape="4236.32,2755.35 4208.20,2739.64 4186.29,2773.52 4181.21,2777.27 4175.63,2778.38 4148.28,2762.94 4134.45,2785.10" allow="pedestrian delivery bicycle"/>
    <edge id="-1007133850#0" from="9291337554" to="9291337558" priority="3" type="highway.residential" numLanes="1" speed="13.89" shape="4134.45,2785.10 4110.20,2770.44 4103.69,2765.21 4097.53,2753.03" disallow="tram rail_urban rail rail_electric rail_fast ship"/>
    <edge id="-1007133850#1" from="9291337555" to="9291337554" priority="3" type="highway.residential" numLanes="1" speed="13.89" shape="4178.67,2811.84 4173.37,2808.63 4134.45,2785.10" disallow="tram rail_urban rail rail_electric rail_fast ship"/>
    <edge id="-1007133851" from="9291337559" to="9291337560" priority="1" type="highway.path" numLanes="1" speed="5.56" width="2.00" allow="pedestrian bicycle"/>
    <edge id="-1007133856" from="9291337563" to="9291337564" priority="1" type="highway.service" numLanes="1" speed="5.56" allow="pedestrian delivery bicycle"/>
    <edge id="-1007133857" from="9291337565" to="9291337566" priority="1" type="highway.service" numLanes="1" speed="5.56" shape="3203.35,1874.06 3203.28,1887.75 3203.27,1889.38" allow="pedestrian delivery bicycle"/>
    <edge id="-1007133858" from="9291337567" to="9291337568" priority="1" type="highway.service" numLanes="1" speed="5.56" allow="pedestrian delivery bicycle"/>
    <edge id="-1007133859" from="9291337569" to="cluster_9291337570_9291337572" priority="1" type="highway.service" numLanes="1" speed="5.56" shape="3248.72,1789.56 3252.67,1765.85" allow="pedestrian delivery bicycle"/>
    <edge id="-1007133860" from="9291337571" to="cluster_9291337570_9291337572" priority="1" type="highway.service" numLanes="1" speed="5.56" shape="3250.68,1748.69 3248.35,1765.23" allow="pedestrian delivery bicycle"/>
    <edge id="-1007133861" from="9291337573" to="9291337574" priority="1" type="highway.service" numLanes="1" speed="5.56" allow="pedestrian delivery bicycle"/>
    <edge id="-1011280619#0" from="196249032" to="11635179715" priority="3" type="highway.residential" numLanes="1" speed="8.33" shape="4545.20,2868.34 4543.49,2871.00 4533.08,2884.15 4530.08,2887.98 4526.58,2892.63" disallow="tram rail_urban rail rail_electric rail_fast ship"/>
    <edge id="-1011280619#1" from="196195585" to="196249032" priority="3" type="highway.residential" numLanes="1" speed="8.33" disallow="tram rail_urban rail rail_electric rail_fast ship"/>
    <edge id="-1011280620" from="8968723963" to="195449380" priority="3" type="highway.residential" numLanes="2" speed="8.33" shape="4570.54,2831.80 4575.11,2825.70 4588.83,2806.24" disallow="tram rail_urban rail rail_electric rail_fast ship"/>
    <edge id="-1011280621#1" from="8968723963" to="cluster_196248187_345242741" priority="3" type="highway.residential" numLanes="1" speed="8.33" shape="4570.54,2831.80 4567.42,2835.93" disallow="tram rail_urban rail rail_electric rail_fast ship"/>
    <edge id="-1015402481" from="3465448355" to="4241276202" priority="3" type="highway.residential" numLanes="1" speed="13.89" shape="3082.43,4717.26 2982.80,4738.31 2976.44,4740.88" disallow="tram rail_urban rail rail_electric rail_fast ship"/>
    <edge id="-1017995566" from="cluster_203638008_8592516749_8592516776_8592516783_#3more" to="9389720277" priority="1" type="highway.track" numLanes="1" speed="5.56" shape="2949.41,4235.32 2943.00,4242.19 2923.42,4241.60 2912.95,4252.30" allow="pedestrian motorcycle moped bicycle"/>
    <edge id="-1021621426#0" from="cluster_197947277_3126825257" to="197953837" priority="3" type="highway.residential" numLanes="1" speed="8.33" shape="5570.56,2239.37 5590.66,2227.42 5604.60,2219.14 5609.23,2216.39 5614.83,2213.06" disallow="tram rail_urban rail rail_electric rail_fast ship"/>
    <edge id="-1021621427#0" from="197950395" to="197950539" priority="3" type="highway.residential" numLanes="1" speed="8.33" shape="5806.98,1962.86 5803.82,1954.23 5797.38,1937.02 5789.84,1917.16 5785.66,1906.53" disallow="tram rail_urban rail rail_electric rail_fast ship"/>
    <edge id="-1021621427#1" from="197950166" to="197950395" priority="3" type="highway.residential" numLanes="1" speed="8.33" shape="5826.12,2016.73 5823.38,2009.11 5812.94,1979.91 5810.37,1972.78 5809.91,1971.50 5806.98,1962.86" disallow="tram rail_urban rail rail_electric rail_fast ship"/>
    <edge id="-1021621427#2" from="cluster_8463759139_9520027616" to="197950166" priority="3" type="highway.residential" numLanes="1" speed="8.33" shape="5836.40,2050.88 5837.54,2047.98 5826.12,2016.73" disallow="tram rail_urban rail rail_electric rail_fast ship"/>
    <edge id="-1021621427#3" from="7367658127" to="cluster_8463759139_9520027616" priority="3" type="highway.residential" numLanes="1" speed="8.33" shape="5823.73,2078.13 5828.94,2069.83 5836.40,2050.88" disallow="tram rail_urban rail rail_electric rail_fast ship"/>
    <edge id="-1021621427#4" from="197947994" to="7367658127" priority="3" type="highway.residential" numLanes="1" speed="8.33" shape="5684.65,2172.91 5776.62,2124.60 5811.56,2097.47 5823.73,2078.13" disallow="tram rail_urban rail rail_electric rail_fast ship"/>
    <edge id="-1021621428" from="9422349140" to="197935219" priority="3" type="highway.residential" numLanes="1" speed="13.89" shape="5720.45,1697.50 5707.72,1655.54 5704.72,1646.35" disallow="tram rail_urban rail rail_electric rail_fast ship"/>
    <edge id="-1021621429" from="197935219" to="197958593" priority="3" type="highway.residential" numLanes="1" speed="13.89" shape="5704.72,1646.35 5693.13,1652.15 5631.45,1681.32 5590.22,1699.69 5586.06,1701.54 5576.77,1705.92" disallow="tram rail_urban rail rail_electric rail_fast ship"/>
    <edge id="-1021621430#0" from="197958593" to="197935218" priority="3" type="highway.residential" numLanes="1" speed="13.89" shape="5576.77,1705.92 5566.52,1710.48 5560.65,1713.13 5514.10,1735.04 5501.75,1740.84" disallow="tram rail_urban rail rail_electric rail_fast ship"/>
    <edge id="-1021621431" from="197958593" to="197959632" priority="3" type="highway.residential" numLanes="1" speed="13.89" shape="5576.77,1705.92 5574.38,1701.40 5508.72,1628.44" disallow="tram rail_urban rail rail_electric rail_fast ship"/>
    <edge id="-1021621433" from="197958314" to="197948827" priority="3" type="highway.residential" numLanes="1" speed="13.89" shape="5329.27,1663.54 5330.57,1665.42 5331.57,1666.67 5434.49,1775.09 5437.52,1777.93" disallow="tram rail_urban rail rail_electric rail_fast ship"/>
    <edge id="-1021669703" from="229786903" to="196216000" priority="3" type="highway.residential" numLanes="1" speed="8.33" shape="3993.99,2337.37 3989.33,2335.42 3928.37,2309.96 3876.48,2288.27 3870.59,2285.74" disallow="tram rail_urban rail rail_electric rail_fast ship"/>
    <edge id="-1024002445" from="9442777248" to="197935780" priority="3" type="highway.residential" numLanes="1" speed="8.33" shape="5766.13,1600.81 5703.28,1606.76 5694.25,1607.61" disallow="tram rail_urban rail rail_electric rail_fast ship"/>
    <edge id="-1024002447" from="197959633" to="9442777248" priority="3" type="highway.residential" numLanes="1" speed="13.89" disallow="tram rail_urban rail rail_electric rail_fast ship"/>
    <edge id="-1024002448" from="9442777247" to="197959632" priority="3" type="highway.residential" numLanes="1" speed="13.89" disallow="tram rail_urban rail rail_electric rail_fast ship"/>
    <edge id="-1024002449" from="197973050" to="197972610" priority="3" type="highway.residential" numLanes="1" speed="13.89" shape="5299.39,1606.16 5294.08,1608.79 5135.47,1690.81 5128.99,1694.58" disallow="tram rail_urban rail rail_electric rail_fast ship"/>
    <edge id="-1024002450" from="9442777253" to="197970824" priority="3" type="highway.residential" numLanes="1" speed="8.33" shape="5240.12,1800.89 5189.67,1753.67 5187.78,1751.84 5185.51,1749.78" disallow="tram rail_urban rail rail_electric rail_fast ship"/>
    <edge id="-1024002452" from="9442777250" to="197970824" priority="3" type="highway.residential" numLanes="1" speed="8.33" shape="5224.77,1725.01 5191.06,1746.80 5185.51,1749.78" disallow="tram rail_urban rail rail_electric rail_fast ship"/>
    <edge id="-1024002454" from="197935215" to="9442777253" priority="3" type="highway.residential" numLanes="1" speed="13.89" shape="5310.01,1868.41 5304.84,1863.51 5240.12,1800.89" disallow="tram rail_urban rail rail_electric rail_fast ship"/>
    <edge id="-1024002455#0" from="197970824" to="9442777251" priority="3" type="highway.residential" numLanes="1" speed="8.33" shape="5185.51,1749.78 5183.36,1747.59 5181.85,1746.13 5164.02,1727.78" disallow="tram rail_urban rail rail_electric rail_fast ship"/>
    <edge id="-1024002456#0" from="197970685" to="9442777250" priority="3" type="highway.residential" numLanes="1" speed="13.89" disallow="tram rail_urban rail rail_electric rail_fast ship"/>
    <edge id="-1024002456#1" from="197958314" to="197970685" priority="3" type="highway.residential" numLanes="1" speed="13.89" disallow="tram rail_urban rail rail_electric rail_fast ship"/>
    <edge id="-1024002457#0" from="197971127" to="197958313" priority="3" type="highway.residential" numLanes="1" speed="13.89" disallow="tram rail_urban rail rail_electric rail_fast ship"/>
    <edge id="-1024002457#1" from="9442777252" to="197971127" priority="3" type="highway.residential" numLanes="1" speed="13.89" disallow="tram rail_urban rail rail_electric rail_fast ship"/>
    <edge id="-1025932324" from="197973048" to="9458883708" priority="10" type="highway.tertiary" numLanes="1" speed="22.22" shape="5003.52,1758.70 5002.16,1750.47 4995.16,1714.45" disallow="tram rail_urban rail rail_electric rail_fast ship"/>
    <edge id="-1025932325" from="197972522" to="7367658145" priority="10" type="highway.tertiary" numLanes="1" speed="8.33" shape="4978.12,1623.10 4975.23,1608.16 4963.60,1549.17 4953.32,1499.09" disallow="tram rail_urban rail rail_electric rail_fast ship"/>
    <edge id="-1027063762" from="198060230" to="198060306" priority="3" type="highway.residential" numLanes="1" speed="8.33" shape="4531.82,3003.44 4485.76,2953.02 4481.09,2948.01" disallow="tram rail_urban rail rail_electric rail_fast ship"/>
    <edge id="-1027063764" from="198060230" to="7746541134" priority="3" type="highway.residential" numLanes="1" speed="13.89" shape="4531.82,3003.44 4608.87,2971.66 4611.58,2971.38 4614.67,2971.49 4618.16,2973.03" disallow="tram rail_urban rail rail_electric rail_fast ship"/>
    <edge id="-1027063767" from="196249034" to="9469005159" priority="3" type="highway.residential" numLanes="1" speed="8.33" shape="4673.73,2910.23 4681.79,2915.81 4740.23,2955.91" disallow="tram rail_urban rail rail_electric rail_fast ship"/>
    <edge id="-1030743533#0" from="9556171360" to="198085462" priority="1" type="highway.path" numLanes="1" speed="5.56" shape="3247.05,2380.10 3240.82,2389.14 3222.53,2430.35 3202.10,2467.17 3197.75,2475.93" width="2.00" allow="pedestrian bicycle">
        <param key="ref" value="CR 7"/>
    </edge>
    <edge id="-1030743533#1" from="9501131008" to="9556171360" priority="1" type="highway.path" numLanes="1" speed="5.56" shape="3271.30,2299.12 3269.69,2315.36 3265.48,2335.98 3247.83,2373.08 3247.05,2380.10" width="2.00" allow="pedestrian bicycle">
        <param key="ref" value="CR 7"/>
    </edge>
    <edge id="-1030743533#2" from="cluster_1812347260_9501131007" to="9501131008" priority="1" type="highway.path" numLanes="1" speed="5.56" shape="3272.32,2284.12 3271.30,2299.12" width="2.00" allow="pedestrian bicycle">
        <param key="ref" value="CR 7"/>
    </edge>
    <edge id="-1030743535#1" from="9501131014" to="cluster_10292270426_9501131011_9501131015" priority="3" type="highway.residential" numLanes="1" speed="13.89" shape="3263.00,2243.27 3277.00,2243.07" disallow="tram rail_urban rail rail_electric rail_fast ship"/>
    <edge id="-1037360115" from="198087485" to="198087484" priority="3" type="highway.residential" numLanes="1" speed="13.89" disallow="tram rail_urban rail rail_electric rail_fast ship"/>
    <edge id="-1039191937" from="9569706286" to="244164975" priority="3" type="highway.residential" numLanes="1" speed="13.89" shape="4538.86,1407.84 4545.31,1389.97 4549.48,1382.96" disallow="tram rail_urban rail rail_electric rail_fast ship"/>
    <edge id="-1039191938" from="244164976" to="244164901" priority="3" type="highway.residential" numLanes="1" speed="13.89" disallow="tram rail_urban rail rail_electric rail_fast ship"/>
    <edge id="-1039191940#0" from="8441303663" to="8972473791" priority="10" type="highway.tertiary" numLanes="1" speed="8.33" shape="4388.08,1081.88 4387.96,1086.91 4387.75,1099.30" disallow="tram rail_urban rail rail_electric rail_fast ship"/>
    <edge id="-1039191940#1" from="7347192908" to="8441303663" priority="10" type="highway.tertiary" numLanes="1" speed="8.33" disallow="tram rail_urban rail rail_electric rail_fast ship"/>
    <edge id="-1039191940#2" from="126433826" to="7347192908" priority="10" type="highway.tertiary" numLanes="1" speed="8.33" disallow="tram rail_urban rail rail_electric rail_fast ship"/>
    <edge id="-1039612345" from="196195585" to="8968723962" priority="3" type="highway.residential" numLanes="1" speed="8.33" shape="4553.86,2855.91 4548.51,2851.51 4539.27,2843.98" disallow="tram rail_urban rail rail_electric rail_fast ship"/>
    <edge id="-1039612350" from="196196903" to="196196796" priority="3" type="highway.residential" numLanes="1" speed="8.33" shape="4503.95,2815.28 4498.69,2811.04 4491.34,2805.12 4457.20,2777.60 4451.48,2772.84" disallow="tram rail_urban rail rail_electric rail_fast ship"/>
    <edge id="-1039612353#0" from="196196615" to="196195297" priority="3" type="highway.residential" numLanes="1" speed="8.33" shape="4396.67,2728.32 4390.75,2723.65 4362.95,2701.40 4353.27,2695.03" disallow="tram rail_urban rail rail_electric rail_fast ship"/>
    <edge id="-1039612355" from="cluster_196249800_196249899" to="cluster_196248187_345242741" priority="3" type="highway.residential" numLanes="1" speed="8.33" shape="4729.43,2825.86 4665.42,2834.23 4637.64,2837.87 4623.18,2839.72 4590.19,2843.93 4571.24,2846.35 4561.68,2844.23" disallow="tram rail_urban rail rail_electric rail_fast ship"/>
    <edge id="-1039612356" from="196254807" to="9573059722" priority="3" type="highway.residential" numLanes="1" speed="13.89" shape="5007.94,2785.68 5005.04,2786.08 4940.49,2795.02 4911.21,2799.01" disallow="tram rail_urban rail rail_electric rail_fast ship"/>
    <edge id="-1039612357" from="9573059722" to="9573059720" priority="3" type="highway.residential" numLanes="1" speed="8.33" shape="4911.21,2799.01 4854.69,2806.72 4795.61,2814.78" disallow="tram rail_urban rail rail_electric rail_fast ship"/>
    <edge id="-1039612358" from="196248190" to="9573059724" priority="3" type="highway.residential" numLanes="1" speed="13.89" disallow="tram rail_urban rail rail_electric rail_fast ship"/>
    <edge id="-1039612359" from="9573059724" to="196254807" priority="3" type="highway.residential" numLanes="1" speed="8.33" shape="5150.35,2764.94 5092.95,2773.29 5011.62,2785.14 5007.94,2785.68" disallow="tram rail_urban rail rail_electric rail_fast ship"/>
    <edge id="-1039918444" from="196175776" to="250907430" priority="3" type="highway.residential" numLanes="1" speed="13.89" disallow="tram rail_urban rail rail_electric rail_fast ship"/>
    <edge id="-1039918445#0" from="cluster_9868834838_9891319315" to="196173546" priority="3" type="highway.residential" numLanes="1" speed="13.89" shape="3285.71,1904.66 3285.55,1908.40" disallow="tram rail_urban rail rail_electric rail_fast ship"/>
    <edge id="-1039918445#2" from="639150560" to="cluster_9868834838_9891319315" priority="3" type="highway.residential" numLanes="1" speed="13.89" shape="3286.37,1889.24 3285.87,1901.10" disallow="tram rail_urban rail rail_electric rail_fast ship"/>
    <edge id="-1039918445#3" from="196175772" to="639150560" priority="3" type="highway.residential" numLanes="1" speed="13.89" shape="3286.92,1837.39 3286.70,1857.87 3286.62,1866.34 3286.37,1889.24" disallow="tram rail_urban rail rail_electric rail_fast ship"/>
    <edge id="-1039925439" from="197929770" to="9575493670" priority="1" type="highway.path" numLanes="1" speed="5.56" shape="3140.86,1885.14 3137.51,1890.60 3136.15,1908.75 3133.07,1912.17" width="2.00" allow="pedestrian bicycle"/>
    <edge id="-1047606011" from="196249698" to="195449380" priority="3" type="highway.residential" numLanes="1" speed="8.33" disallow="tram rail_urban rail rail_electric rail_fast ship"/>
    <edge id="-1047606896#0" from="cluster_2441843464_3098524121" to="9827869875" priority="11" type="highway.secondary" numLanes="1" speed="22.22" shape="2893.98,3255.58 2903.44,3245.34 2911.99,3235.12 2928.72,3213.29 2938.43,3198.76 2949.82,3180.34 2958.75,3164.28 2972.10,3136.20" disallow="tram rail_urban rail rail_electric rail_fast ship">
        <param key="ref" value="D 47"/>
    </edge>
    <edge id="-1047606896#1" from="173653158" to="cluster_2441843464_3098524121" priority="11" type="highway.secondary" numLanes="1" speed="22.22" shape="2548.31,3523.73 2622.32,3468.32 2685.41,3421.36 2714.23,3400.03 2750.95,3372.85 2801.63,3334.60 2832.32,3310.94 2849.08,3297.72 2866.62,3282.60 2881.51,3268.75 2893.98,3255.58" disallow="tram rail_urban rail rail_electric rail_fast ship">
        <param key="ref" value="D 47"/>
    </edge>
    <edge id="-1047681664" from="cluster_10060858377_10060858381_9827869866" to="9633944713" priority="1" type="highway.path" numLanes="1" speed="5.56" shape="3032.55,2805.90 3033.91,2800.21 3036.87,2787.15 3038.19,2779.12 3040.06,2773.25 3047.90,2759.36 3056.19,2749.69" width="2.00" allow="pedestrian bicycle"/>
    <edge id="-1047681681" from="9575493658" to="3479142769" priority="1" type="highway.path" numLanes="1" speed="5.56" shape="3132.95,1936.75 3132.94,1942.37 3132.90,1965.37" width="2.00" allow="pedestrian bicycle"/>
    <edge id="-1052829127#0" from="9575493705" to="cluster_194452238_9575493704" priority="3" type="highway.residential" numLanes="1" speed="13.89" shape="4271.59,1850.60 4261.47,1824.76" disallow="tram rail_urban rail rail_electric rail_fast ship"/>
    <edge id="-1052829127#1" from="9575493707" to="9575493705" priority="3" type="highway.residential" numLanes="1" speed="13.89" shape="4253.94,1858.97 4256.64,1866.01 4258.26,1868.54 4260.60,1870.45 4263.42,1871.54 4266.43,1871.72 4269.35,1870.96 4271.89,1869.33 4273.80,1867.00 4274.90,1864.19 4275.08,1861.19 4274.31,1858.27 4271.59,1850.60" disallow="tram rail_urban rail rail_electric rail_fast ship"/>
    <edge id="-1052829127#2" from="194452231" to="9575493707" priority="3" type="highway.residential" numLanes="1" speed="13.89" disallow="tram rail_urban rail rail_electric rail_fast ship"/>
    <edge id="-1052829129" from="203832394" to="203832741" priority="3" type="highway.residential" numLanes="1" speed="13.89" shape="4303.76,1722.23 4333.88,1708.37 4336.23,1706.98 4337.97,1704.89 4338.90,1702.33 4338.88,1699.61 4338.81,1697.15 4338.30,1694.66 4336.66,1691.90 4335.20,1690.38 4332.82,1689.03 4330.14,1688.58 4327.44,1689.07 4295.07,1704.01" disallow="tram rail_urban rail rail_electric rail_fast ship"/>
    <edge id="-1062413274" from="11658186781" to="635134586" priority="1" type="highway.service" numLanes="1" speed="5.56" shape="5628.59,5722.30 5555.92,5883.71 5516.31,5944.64 5502.81,5960.96 5491.40,5969.02 5467.14,5971.31 5414.19,5954.92 5405.37,5951.53 5399.44,5943.85 5397.77,5933.75 5399.68,5923.36 5412.85,5873.35 5413.21,5864.04 5405.76,5855.31 5394.00,5849.72" allow="pedestrian delivery bicycle"/>
    <edge id="-1062413277" from="9760227978" to="3482766405" priority="1" type="highway.service" numLanes="1" speed="5.56" shape="5119.53,6338.38 5135.88,6323.33 5142.63,6321.92 5152.25,6317.56" allow="pedestrian delivery bicycle"/>
    <edge id="-1062413278" from="9760227981" to="9760227983" priority="3" type="highway.residential" numLanes="1" speed="8.33" shape="6814.15,5500.61 6836.55,5465.49 6853.89,5441.19" disallow="tram rail_urban rail rail_electric rail_fast ship"/>
    <edge id="-1062413279#0" from="9760227983" to="9760227987" priority="3" type="highway.residential" numLanes="1" speed="8.33" shape="6853.89,5441.19 6861.91,5448.81 6879.61,5457.78 6893.85,5463.54 6897.74,5464.83 6901.64,5466.11" disallow="tram rail_urban rail rail_electric rail_fast ship"/>
    <edge id="-1062413279#1" from="9760227984" to="9760227983" priority="3" type="highway.residential" numLanes="1" speed="8.33" disallow="tram rail_urban rail rail_electric rail_fast ship"/>
    <edge id="-1064573477" from="9777011988" to="3388180502" priority="1" type="highway.path" numLanes="1" speed="5.56" shape="3997.53,3616.69 3994.97,3607.51 3994.10,3605.14 3988.66,3597.53 3974.09,3584.39 3967.13,3573.94 3962.85,3565.01 3963.27,3559.72 3965.86,3555.67 3985.08,3533.02" width="2.00" allow="pedestrian bicycle"/>
    <edge id="-1076158082" from="9868834841" to="cluster_639141632_9868834849_9891319304" priority="1" type="highway.cycleway" numLanes="1" speed="5.56" shape="3268.41,1931.53 3269.71,1934.23 3271.41,1936.71 3273.86,1939.24 3276.71,1941.28 3279.88,1942.81 3283.28,1943.74 3286.78,1944.06" width="2.00" allow="bicycle"/>
    <edge id="-1077052305#0" from="cluster_9044851688_9044851700" to="3883026137" priority="3" type="highway.residential" numLanes="1" speed="13.89" shape="4740.19,802.27 4751.00,823.13 4772.48,852.62 4787.25,869.46" disallow="tram rail_urban rail rail_electric rail_fast ship"/>
    <edge id="-1077052305#2" from="9044851698" to="cluster_9044851688_9044851700" priority="3" type="highway.residential" numLanes="1" speed="13.89" shape="4730.48,777.02 4736.14,791.76" disallow="tram rail_urban rail rail_electric rail_fast ship"/>
    <edge id="-1077052305#3" from="11635150131" to="9044851698" priority="3" type="highway.residential" numLanes="1" speed="13.89" disallow="tram rail_urban rail rail_electric rail_fast ship"/>
    <edge id="-1077052305#4" from="8972473804" to="11635150131" priority="3" type="highway.residential" numLanes="1" speed="13.89" shape="4680.01,590.62 4689.17,620.69 4722.70,750.33 4723.84,754.22" disallow="tram rail_urban rail rail_electric rail_fast ship"/>
    <edge id="-1078738445" from="1422714030" to="1422713097" priority="3" type="highway.residential" numLanes="1" speed="13.89" shape="6368.27,4022.06 6363.95,4064.77 6363.55,4068.66" disallow="tram rail_urban rail rail_electric rail_fast ship"/>
    <edge id="-1078738446" from="9889138305" to="cluster_635134541_9352213603_9889138286_9889138292" priority="3" type="highway.residential" numLanes="1" speed="13.89" shape="6344.06,4020.80 6349.95,4007.88 6352.91,4001.41" disallow="tram rail_urban rail rail_electric rail_fast ship"/>
    <edge id="-1078738449" from="635134545" to="9889138306" priority="3" type="highway.residential" numLanes="1" speed="13.89" shape="6197.57,4330.86 6264.46,4185.07 6277.56,4160.00 6297.87,4117.94" disallow="tram rail_urban rail rail_electric rail_fast ship"/>
    <edge id="-1078998884#0" from="10171760592" to="cluster_9891319183_9891319184_9891319185_9891319250" priority="1" type="highway.cycleway" numLanes="1" speed="5.56" shape="3474.89,3071.54 3464.83,3099.25 3459.48,3110.65 3454.79,3116.54 3443.99,3126.94 3429.67,3134.46 3413.39,3138.17 3400.32,3137.21 3384.88,3132.32 3361.03,3122.81 3264.68,3084.79 3217.03,3065.68 3190.38,3055.00 3106.28,3021.60 3085.83,3013.36 3071.65,3006.96 3061.04,3001.23 3052.50,2996.25" width="2.00" allow="pedestrian bicycle"/>
    <edge id="-1078998884#1" from="195442315" to="10171760592" priority="1" type="highway.cycleway" numLanes="1" speed="5.56" shape="3543.04,2924.47 3540.47,2923.04 3510.79,2980.12 3483.46,3047.57 3478.41,3061.71 3474.89,3071.54" width="2.00" allow="pedestrian bicycle"/>
    <edge id="-1078998888#0" from="9891319195" to="cluster_10162806790_9891319191" priority="10" type="highway.tertiary" numLanes="1" speed="22.22" shape="3479.75,3072.88 3467.60,3107.45 3463.83,3115.68 3460.38,3120.99 3455.38,3126.63" disallow="tram rail_urban rail rail_electric rail_fast ship"/>
    <edge id="-1078998888#1" from="195442315" to="9891319195" priority="10" type="highway.tertiary" numLanes="1" speed="22.22" shape="3543.04,2924.47 3513.81,2981.90 3497.99,3021.11 3486.35,3052.93 3479.75,3072.88" disallow="tram rail_urban rail rail_electric rail_fast ship"/>
    <edge id="-1078998890#0" from="9891319245" to="cluster_9891319183_9891319184_9891319185_9891319250" priority="10" type="highway.tertiary" numLanes="1" speed="22.22" shape="3429.28,3141.27 3418.07,3143.44 3404.75,3143.27 3394.56,3140.89 3382.17,3136.82 3246.46,3082.91 3215.03,3070.43 3183.76,3058.00 3066.45,3011.12" disallow="tram rail_urban rail rail_electric rail_fast ship"/>
    <edge id="-1078998890#1" from="cluster_10162806790_9891319191" to="9891319245" priority="10" type="highway.tertiary" numLanes="1" speed="22.22" shape="3443.99,3134.54 3429.28,3141.27" disallow="tram rail_urban rail rail_electric rail_fast ship"/>
    <edge id="-1078998895#0" from="9891319264" to="9848291006" priority="1" type="highway.cycleway" numLanes="1" speed="5.56" shape="3052.16,1919.45 3051.61,1925.28 3052.36,1930.35 3053.84,1935.13 3056.38,1939.42 3059.25,1943.52 3061.83,1946.76 3062.73,1949.67 3062.49,1953.75" width="2.00" allow="pedestrian bicycle"/>
    <edge id="-1078998895#1" from="8757555321" to="9891319264" priority="1" type="highway.cycleway" numLanes="1" speed="5.56" shape="3071.32,1895.34 3068.04,1900.34 3062.89,1904.39 3059.85,1906.59 3056.81,1909.96 3054.62,1913.13 3052.16,1919.45" width="2.00" allow="pedestrian bicycle"/>
    <edge id="-1078998899" from="cluster_8757526807_9891319258" to="9848291015" priority="1" type="highway.cycleway" numLanes="1" speed="5.56" shape="3108.10,1936.25 3111.89,1935.69" width="2.00" allow="pedestrian bicycle"/>
    <edge id="-1078998915" from="9797148428" to="cluster_639150569_9875971278" priority="3" type="highway.residential" numLanes="1" speed="13.89" shape="3441.50,1917.26 3441.49,1920.67" disallow="tram rail_urban rail rail_electric rail_fast ship"/>
    <edge id="-1084739491" from="8757526812" to="9848291117" priority="1" type="highway.cycleway" numLanes="1" speed="5.56" width="2.00" allow="pedestrian bicycle"/>
    <edge id="-1092616467#0" from="8949558396" to="10006462768" priority="1" type="highway.service" numLanes="1" speed="5.56" shape="7716.54,507.37 7537.99,489.40 7534.68,550.63" allow="pedestrian delivery bicycle"/>
    <edge id="-1092616467#1" from="12583239045" to="8949558396" priority="1" type="highway.service" numLanes="1" speed="5.56" shape="7829.95,515.62 7817.46,516.08 7799.77,517.27 7716.54,507.37" allow="pedestrian delivery bicycle"/>