<?xml version="1.0" encoding="UTF-8"?>

<!-- generated on 2025-04-04 16:25:23 by Eclipse SUMO netconvert Version 1.19.0
<configuration xmlns:xsi="http://www.w3.org/2001/XMLSchema-instance" xsi:noNamespaceSchemaLocation="http://sumo.dlr.de/xsd/netconvertConfiguration.xsd">

    <input>
        <sumo-net-file value="fontenay_en_parisis/fontenay_en_parisis.net.xml"/>
    </input>

    <output>
        <plain-output-prefix value="fontenay_en_parisis/fontenay_en_parisis"/>
    </output>

    <processing>
        <geometry.min-radius.fix.railways value="false"/>
        <geometry.max-grade.fix value="false"/>
        <offset.disable-normalization value="true"/>
        <lefthand value="0"/>
    </processing>

    <tls_building>
        <tls.ignore-internal-junction-jam value="1"/>
    </tls_building>

    <junctions>
        <no-turnarounds value="true"/>
        <junctions.corner-detail value="5"/>
        <junctions.limit-turn-speed value="5.50"/>
        <rectangular-lane-cut value="0"/>
    </junctions>

    <pedestrian>
        <walkingareas value="0"/>
    </pedestrian>

</configuration>
-->

<nodes version="1.16" xmlns:xsi="http://www.w3.org/2001/XMLSchema-instance" xsi:noNamespaceSchemaLocation="http://sumo.dlr.de/xsd/nodes_file.xsd">
    <location netOffset="-456526.72,-5429012.58" convBoundary="0.00,0.00,9034.46,11056.90" origBoundary="1.932246,48.983970,2.575362,49.112513" projParameter="+proj=utm +zone=31 +ellps=WGS84 +datum=WGS84 +units=m +no_defs"/>

    <node id="10006462768" x="7534.68" y="550.63" type="right_before_left"/>
    <node id="10006462772" x="7122.30" y="269.14" type="priority"/>
    <node id="10031745397" x="4669.24" y="911.27" type="right_before_left"/>
    <node id="10031745398" x="4658.38" y="909.74" type="priority"/>
    <node id="10031745399" x="4641.79" y="907.41" type="right_before_left"/>
    <node id="10031745400" x="4646.28" y="875.03" type="right_before_left"/>
    <node id="10031745401" x="4644.66" y="887.59" type="priority"/>
    <node id="10031745402" x="4639.32" y="924.44" type="right_before_left"/>
    <node id="10031745407" x="4656.29" y="926.56" type="priority"/>
    <node id="10031807337" x="4637.82" y="940.16" type="priority"/>
    <node id="10031807381" x="4810.33" y="925.71" type="priority"/>
    <node id="10031807389" x="4807.64" y="886.13" type="priority"/>
    <node id="10034270480" x="1167.92" y="1505.04" type="priority"/>
    <node id="10049105185" x="7434.65" y="4708.12" type="priority"/>
    <node id="10049105198" x="7559.51" y="4636.97" type="priority"/>
    <node id="10049105200" x="7573.75" y="4711.75" type="priority"/>
    <node id="10049105201" x="7437.48" y="4496.28" type="dead_end"/>
    <node id="10049105203" x="7364.55" y="4418.54" type="dead_end"/>
    <node id="10049105207" x="7415.64" y="4693.59" type="priority"/>
    <node id="10049105210" x="7303.93" y="4797.78" type="dead_end"/>
    <node id="10049105211" x="7325.43" y="4771.62" type="dead_end"/>
    <node id="10049105215" x="7332.36" y="4708.14" type="dead_end"/>
    <node id="10049105216" x="7309.39" y="4598.16" type="priority"/>
    <node id="10049129719" x="7397.94" y="4586.98" type="dead_end"/>
    <node id="10049129720" x="7379.05" y="4497.17" type="dead_end"/>
    <node id="10049129722" x="7348.21" y="4599.00" type="priority"/>
    <node id="10049129726" x="7377.08" y="4533.64" type="priority"/>
    <node id="10049129729" x="7305.81" y="4511.28" type="dead_end"/>
    <node id="10049129730" x="7443.96" y="4512.65" type="priority"/>
    <node id="10049129734" x="7445.97" y="4565.01" type="priority"/>
    <node id="10049129736" x="7376.24" y="4475.71" type="dead_end"/>
    <node id="10049129744" x="7344.96" y="4387.15" type="dead_end"/>
    <node id="10049129749" x="7359.80" y="4408.95" type="dead_end"/>
    <node id="10049129750" x="7353.94" y="4412.11" type="priority"/>
    <node id="10049129753" x="7309.70" y="4416.88" type="dead_end"/>
    <node id="10049129754" x="7347.42" y="4690.13" type="priority"/>
    <node id="10060858378" x="3122.42" y="2836.67" type="priority"/>
    <node id="10060937652" x="2288.09" y="3461.94" type="priority"/>
    <node id="10060937669" x="2881.64" y="3247.15" type="right_before_left"/>
    <node id="10066779776" x="8093.11" y="4895.52" type="priority"/>
    <node id="10066779777" x="8082.69" y="4903.17" type="dead_end"/>
    <node id="10068732739" x="4934.43" y="2164.67" type="priority"/>
    <node id="10068732743" x="4900.83" y="2190.74" type="priority"/>
    <node id="101220399#0-AddedOffRampNode" x="3597.64" y="3736.36" type="priority"/>
    <node id="101220399#1-AddedOffRampNode" x="5093.90" y="3668.30" type="priority"/>
    <node id="1013604819" x="7785.83" y="3865.74" type="priority"/>
    <node id="1015964685" x="5610.44" y="633.76" type="right_before_left"/>
    <node id="1015964835" x="5379.37" y="514.13" type="right_before_left"/>
    <node id="1015965020" x="5113.88" y="544.56" type="right_before_left"/>
    <node id="1015965142" x="5254.33" y="526.32" type="dead_end"/>
    <node id="1015965196" x="5226.52" y="383.85" type="dead_end"/>
    <node id="1015965526" x="5120.22" y="416.96" type="priority"/>
    <node id="1015965993" x="5537.47" y="402.35" type="dead_end"/>
    <node id="1015966039" x="5474.28" y="626.09" type="priority"/>
    <node id="1015966319" x="5277.22" y="603.97" type="priority"/>
    <node id="1015966340" x="5447.00" y="605.59" type="priority"/>
    <node id="1015966451" x="5144.41" y="626.40" type="right_before_left"/>
    <node id="1015966516" x="5484.88" y="570.50" type="dead_end"/>
    <node id="1015966600" x="5499.31" y="500.40" type="dead_end"/>
    <node id="1015966673" x="5624.66" y="705.24" type="dead_end"/>
    <node id="1015966876" x="5346.23" y="485.40" type="priority"/>
    <node id="1015967517" x="5560.15" y="400.65" type="priority"/>
    <node id="10161903423" x="3924.98" y="6024.22" type="priority"/>
    <node id="10161903426" x="3917.78" y="6029.44" type="right_before_left"/>
    <node id="10161903437" x="3854.29" y="6093.53" type="priority"/>
    <node id="10161903450" x="3928.30" y="6131.27" type="right_before_left"/>
    <node id="10161903459" x="3949.19" y="6133.94" type="right_before_left"/>
    <node id="10161903462" x="3944.40" y="6115.86" type="priority"/>
    <node id="10161903465" x="3971.32" y="6175.28" type="priority"/>
    <node id="10162143583" x="3765.38" y="6095.79" type="right_before_left"/>
    <node id="10162143593" x="3811.57" y="5986.93" type="right_before_left"/>
    <node id="10162143596" x="3508.11" y="6225.71" type="priority"/>
    <node id="10162143601" x="3738.54" y="6009.22" type="right_before_left"/>
    <node id="10162143606" x="3671.21" y="5981.39" type="priority"/>
    <node id="10162143607" x="3655.90" y="5967.96" type="dead_end"/>
    <node id="10162143610" x="3606.81" y="5985.40" type="dead_end"/>
    <node id="10162170025" x="3742.06" y="5995.93" type="dead_end"/>
    <node id="10162170026" x="3759.12" y="6099.18" type="dead_end"/>
    <node id="10162170035" x="3726.22" y="6105.95" type="dead_end"/>
    <node id="10162170040" x="3763.52" y="6126.37" type="dead_end"/>
    <node id="10162170042" x="3768.89" y="6120.78" type="dead_end"/>
    <node id="10162170052" x="3777.88" y="5957.94" type="priority"/>
    <node id="10162170060" x="3655.54" y="6120.61" type="dead_end"/>
    <node id="10162543492" x="4235.99" y="5985.41" type="priority"/>
    <node id="10162543500" x="4243.10" y="5973.26" type="dead_end"/>
    <node id="10162543501" x="4246.46" y="5972.43" type="dead_end"/>
    <node id="10162543502" x="4245.83" y="5968.87" type="dead_end"/>
    <node id="10162543503" x="4254.83" y="5954.42" type="dead_end"/>
    <node id="10162543505" x="4257.36" y="5978.57" type="dead_end"/>
    <node id="10162571017" x="4292.22" y="5997.11" type="priority"/>
    <node id="10162571061" x="2890.16" y="4632.46" type="priority"/>
    <node id="10162571081" x="2878.47" y="4226.06" type="priority"/>
    <node id="10171760592" x="3474.89" y="3071.54" type="priority"/>
    <node id="10171760599" x="3457.82" y="3179.70" type="priority"/>
    <node id="10267728416" x="7316.75" y="4374.15" type="dead_end"/>
    <node id="10267728417" x="7315.33" y="4381.88" type="dead_end"/>
    <node id="10277378092" x="7052.24" y="2017.64" type="priority"/>
    <node id="10277393263" x="6718.47" y="1011.93" type="priority"/>
    <node id="10277393270" x="6376.37" y="147.32" type="dead_end"/>
    <node id="10277393271" x="6396.44" y="187.28" type="dead_end"/>
    <node id="10292985273" x="8361.33" y="2127.30" type="priority"/>
    <node id="10292985276" x="8305.86" y="2548.19" type="right_before_left"/>
    <node id="10292985472" x="5943.84" y="920.45" type="priority"/>
    <node id="10292985479" x="5296.89" y="641.70" type="priority"/>
    <node id="10292985481" x="5285.44" y="656.62" type="right_before_left"/>
    <node id="10292985541" x="4351.04" y="353.67" type="priority"/>
    <node id="10292985548" x="4147.31" y="630.07" type="priority"/>
    <node id="1034076394" x="4039.69" y="1540.48" type="right_before_left"/>
    <node id="1034076449" x="4141.36" y="1149.65" type="priority"/>
    <node id="1034076475" x="4044.89" y="1527.95" type="right_before_left"/>
    <node id="1034076507" x="4049.71" y="1516.33" type="right_before_left"/>
    <node id="1034076545" x="4054.61" y="1504.50" type="right_before_left"/>
    <node id="1034076587" x="4060.00" y="1491.52" type="right_before_left"/>
    <node id="1034076619" x="4107.94" y="1566.45" type="right_before_left"/>
    <node id="1034076621" x="4126.72" y="1518.33" type="right_before_left"/>
    <node id="1034076627" x="3780.70" y="801.10" type="priority"/>
    <node id="1034076630" x="4618.47" y="1601.72" type="dead_end" fringe="inner">
        <param key="buffer_stop" value="true"/>
    </node>
    <node id="1034076636" x="4112.64" y="1554.42" type="right_before_left"/>
    <node id="1034076659" x="4343.53" y="1341.67" type="priority"/>
    <node id="1034076671" x="4061.54" y="1478.69" type="priority"/>
    <node id="1034076677" x="4248.05" y="1229.10" type="priority"/>
    <node id="1034076699" x="4117.02" y="1543.17" type="right_before_left"/>
    <node id="1034076704" x="3863.35" y="876.39" type="priority"/>
    <node id="1034076713" x="4122.33" y="1529.58" type="right_before_left"/>
    <node id="1034076746" x="4057.84" y="1048.31" type="priority"/>
    <node id="1034076766" x="4130.24" y="1519.81" type="priority"/>
    <node id="1034076796" x="3931.63" y="944.38" type="priority"/>
    <node id="1034076798" x="4064.80" y="1479.72" type="priority"/>
    <node id="1034158194" x="4212.88" y="1224.89" type="dead_end"/>
    <node id="1034158235" x="4218.72" y="1230.31" type="dead_end"/>
    <node id="1034158255" x="4221.15" y="1211.59" type="dead_end"/>
    <node id="1034158261" x="4229.56" y="1219.60" type="dead_end"/>
    <node id="1034158266" x="4224.31" y="1235.47" type="dead_end"/>
    <node id="1039648415" x="5426.02" y="2366.53" type="dead_end"/>
    <node id="10600896338" x="8040.86" y="4884.46" type="dead_end"/>
    <node id="10600896339" x="8036.62" y="4873.82" type="dead_end"/>
    <node id="10600896376" x="8003.18" y="4912.66" type="priority"/>
    <node id="10600896379" x="7851.31" y="5053.59" type="priority"/>
    <node id="10655582862" x="7544.49" y="3426.00" type="priority"/>
    <node id="10694334611" x="7615.08" y="3571.75" type="priority"/>
    <node id="10694334612" x="7674.73" y="3540.37" type="priority"/>
    <node id="10694367453" x="7419.15" y="3963.01" type="priority"/>
    <node id="10694367466" x="7497.75" y="3965.13" type="priority"/>
    <node id="10694367467" x="7438.55" y="3951.87" type="right_before_left"/>
    <node id="10694367468" x="7445.79" y="3967.14" type="priority"/>
    <node id="10735675189" x="6994.25" y="4455.03" type="priority"/>
    <node id="10735675191" x="7098.36" y="5499.23" type="priority"/>
    <node id="10735675192" x="7084.18" y="5465.05" type="priority"/>
    <node id="10735675195" x="6838.10" y="5551.73" type="priority"/>
    <node id="10735675198" x="6880.97" y="5583.88" type="priority"/>
    <node id="10735726485" x="2791.12" y="859.93" type="priority"/>
    <node id="10735726486" x="3839.73" y="983.55" type="priority"/>
    <node id="10735726487" x="3798.32" y="959.56" type="priority"/>
    <node id="10735726488" x="3823.78" y="882.24" type="priority"/>
    <node id="10735726489" x="3787.02" y="940.94" type="priority"/>
    <node id="10735726498" x="4138.73" y="2834.49" type="priority"/>
    <node id="10735756006" x="4041.92" y="2789.69" type="priority"/>
    <node id="10756018516" x="3805.88" y="868.99" type="priority"/>
    <node id="10788580153" x="6295.52" y="2512.08" type="priority"/>
    <node id="10788580161" x="6204.41" y="2559.10" type="right_before_left"/>
    <node id="10788580163" x="6192.28" y="2557.40" type="priority"/>
    <node id="10788580183" x="6155.67" y="2651.09" type="priority"/>
    <node id="10788580189" x="8474.94" y="2962.29" type="right_before_left"/>
    <node id="10788580195" x="8648.10" y="2976.05" type="priority"/>
    <node id="10788680320" x="7554.48" y="6347.58" type="priority"/>
    <node id="10788680322" x="7917.06" y="6395.79" type="priority"/>
    <node id="10815292444" x="4524.20" y="1636.58" type="priority"/>
    <node id="10878315226" x="7336.78" y="3963.85" type="priority"/>
    <node id="10878315242" x="7385.51" y="3836.59" type="priority"/>
    <node id="10878315243" x="7304.69" y="3845.43" type="right_before_left"/>
    <node id="10878315244" x="7311.10" y="3898.78" type="priority"/>
    <node id="10878315246" x="7329.54" y="3933.90" type="priority"/>
    <node id="10878315252" x="7299.22" y="3827.86" type="right_before_left"/>
    <node id="10878315253" x="7279.27" y="3829.68" type="priority"/>
    <node id="10878315254" x="7332.78" y="3823.86" type="priority"/>
    <node id="10911731163" x="3138.74" y="719.05" type="priority"/>
    <node id="10915640194" x="4593.28" y="563.96" type="priority"/>
    <node id="10915640195" x="4599.60" y="564.20" type="priority"/>
    <node id="10915640201" x="4586.59" y="577.84" type="priority"/>
    <node id="10915644610" x="4567.53" y="614.90" type="dead_end"/>
    <node id="10915644611" x="4569.04" y="599.66" type="dead_end"/>
    <node id="10915644612" x="4549.50" y="597.20" type="dead_end"/>
    <node id="10915644613" x="4548.43" y="613.22" type="dead_end"/>
    <node id="10915644615" x="4541.11" y="576.15" type="priority"/>
    <node id="10915644617" x="4562.10" y="576.93" type="right_before_left"/>
    <node id="10915644618" x="4592.81" y="578.08" type="dead_end"/>
    <node id="10915644622" x="4558.80" y="614.14" type="dead_end"/>
    <node id="10915644623" x="4560.06" y="598.53" type="dead_end"/>
    <node id="10915644625" x="4603.05" y="618.03" type="dead_end"/>
    <node id="10915644626" x="4605.82" y="604.71" type="dead_end"/>
    <node id="10915644627" x="4523.71" y="593.72" type="dead_end"/>
    <node id="10915644628" x="4514.91" y="610.25" type="dead_end"/>
    <node id="10915644629" x="4591.62" y="617.02" type="dead_end"/>
    <node id="10915644630" x="4591.83" y="602.51" type="dead_end"/>
    <node id="10934128631" x="4470.88" y="663.50" type="priority"/>
    <node id="10934128634" x="4486.73" y="654.36" type="dead_end"/>
    <node id="11007236772" x="5954.12" y="4834.78" type="priority"/>
    <node id="11012531920" x="4204.80" y="1245.25" type="dead_end"/>
    <node id="11012531921" x="4192.45" y="1234.25" type="dead_end"/>
    <node id="11012531922" x="4187.09" y="1229.46" type="dead_end" fringe="inner">
        <param key="buffer_stop" value="true"/>
    </node>
    <node id="11012531933" x="4217.86" y="1229.52" type="dead_end"/>
    <node id="11012531934" x="4219.56" y="1231.09" type="dead_end"/>
    <node id="11012531935" x="4228.74" y="1218.74" type="dead_end"/>
    <node id="11012531951" x="4237.29" y="1254.74" type="dead_end"/>
    <node id="11012531952" x="4242.64" y="1259.82" type="dead_end"/>
    <node id="11012531953" x="4232.35" y="1250.05" type="dead_end"/>
    <node id="11012531957" x="4252.28" y="1261.93" type="dead_end"/>
    <node id="11012531963" x="4228.84" y="1239.77" type="dead_end"/>
    <node id="11012531980" x="4206.19" y="1223.48" type="dead_end"/>
    <node id="11012531982" x="4204.91" y="1220.87" type="dead_end"/>
    <node id="11012532000" x="4219.48" y="1236.16" type="dead_end"/>
    <node id="11012553206" x="4204.05" y="1246.67" type="dead_end"/>
    <node id="11012553208" x="4210.90" y="1252.60" type="dead_end"/>
    <node id="11012553209" x="4209.48" y="1251.37" type="dead_end"/>
    <node id="11012553210" x="4214.87" y="1248.52" type="dead_end"/>
    <node id="11012553211" x="4213.51" y="1247.25" type="dead_end"/>
    <node id="11012553219" x="4217.65" y="1243.01" type="dead_end"/>
    <node id="11398398804" x="7633.40" y="3210.28" type="right_before_left"/>
    <node id="11398398809" x="7555.14" y="3233.40" type="right_before_left"/>
    <node id="11398398810" x="7611.25" y="3200.69" type="right_before_left"/>
    <node id="11398398811" x="7624.82" y="3220.17" type="right_before_left"/>
    <node id="11398398821" x="7563.89" y="3187.01" type="right_before_left"/>
    <node id="11398398823" x="7525.46" y="3194.00" type="right_before_left"/>
    <node id="11398398829" x="7504.74" y="3245.28" type="right_before_left"/>
    <node id="11398398832" x="7579.28" y="3171.63" type="priority"/>
    <node id="11398398839" x="7604.82" y="3183.12" type="priority"/>
    <node id="11428468014" x="7350.11" y="4803.09" type="priority"/>
    <node id="11428468028" x="7360.35" y="4755.68" type="right_before_left"/>
    <node id="11428468030" x="7386.75" y="4741.91" type="priority"/>
    <node id="11482205423" x="7409.71" y="3894.69" type="priority"/>
    <node id="11482205428" x="7387.73" y="3885.13" type="priority"/>
    <node id="11599172036" x="3505.90" y="4492.51" type="priority"/>
    <node id="11599172039" x="3523.58" y="4486.62" type="priority"/>
    <node id="11626529668" x="3366.86" y="4575.92" type="priority"/>
    <node id="11635150117" x="4954.17" y="1230.80" type="right_before_left"/>
    <node id="11635150120" x="4966.07" y="1239.46" type="priority"/>
    <node id="11635150128" x="4869.25" y="660.79" type="priority"/>
    <node id="11635150131" x="4723.84" y="754.22" type="priority"/>
    <node id="11635150133" x="4819.42" y="716.20" type="right_before_left"/>
    <node id="11635150134" x="4873.12" y="827.87" type="right_before_left"/>
    <node id="11635150135" x="4991.60" y="829.36" type="priority"/>
    <node id="11635150136" x="4105.54" y="1048.76" type="priority"/>
    <node id="11635150142" x="4404.33" y="1495.57" type="priority"/>
    <node id="11635150147" x="4232.79" y="1467.00" type="right_before_left"/>
    <node id="11635150151" x="4295.64" y="1437.28" type="right_before_left"/>
    <node id="11635150152" x="4285.10" y="1448.32" type="priority"/>
    <node id="11635150154" x="4328.37" y="1403.73" type="priority"/>
    <node id="11635150159" x="3060.10" y="604.79" type="priority"/>
    <node id="11635150160" x="3040.38" y="599.52" type="right_before_left"/>
    <node id="11635150161" x="3055.76" y="620.97" type="priority"/>
    <node id="11635150162" x="3036.58" y="616.36" type="right_before_left"/>
    <node id="11635150163" x="3050.71" y="639.77" type="priority"/>
    <node id="11635150164" x="3032.21" y="635.67" type="right_before_left"/>
    <node id="11635150165" x="3043.80" y="664.86" type="priority"/>
    <node id="11635179570" x="3044.02" y="583.43" type="right_before_left"/>
    <node id="11635179571" x="3062.05" y="587.37" type="priority"/>
    <node id="11635179572" x="3062.89" y="668.77" type="priority"/>
    <node id="11635179573" x="3171.40" y="691.75" type="priority"/>
    <node id="11635179574" x="3107.36" y="677.76" type="right_before_left"/>
    <node id="11635179578" x="2941.97" y="526.01" type="right_before_left"/>
    <node id="11635179586" x="2951.99" y="397.29" type="priority"/>
    <node id="11635179622" x="3339.65" y="1355.70" type="right_before_left"/>
    <node id="11635179635" x="3271.97" y="1550.76" type="right_before_left"/>
    <node id="11635179636" x="3261.49" y="1649.11" type="priority"/>
    <node id="11635179638" x="3215.64" y="1569.21" type="priority"/>
    <node id="11635179639" x="3266.00" y="1577.33" type="right_before_left"/>
    <node id="11635179640" x="3632.72" y="1935.07" type="priority"/>
    <node id="11635179648" x="4006.36" y="1925.82" type="priority"/>
    <node id="11635179654" x="4059.87" y="2388.06" type="priority"/>
    <node id="11635179669" x="3733.33" y="2199.12" type="priority"/>
    <node id="11635179670" x="3740.17" y="2208.64" type="priority"/>
    <node id="11635179671" x="3745.30" y="2188.14" type="priority"/>
    <node id="11635179672" x="3752.65" y="2198.94" type="priority"/>
    <node id="11635179673" x="3716.43" y="2194.21" type="priority"/>
    <node id="11635179676" x="3713.74" y="2215.24" type="priority"/>
    <node id="11635179678" x="3691.69" y="2203.58" type="right_before_left"/>
    <node id="11635179680" x="3655.73" y="2136.98" type="priority"/>
    <node id="11635179683" x="3633.32" y="2183.46" type="right_before_left"/>
    <node id="11635179684" x="3616.34" y="2233.39" type="right_before_left"/>
    <node id="11635179685" x="3541.73" y="2207.19" type="priority"/>
    <node id="11635179687" x="3679.40" y="2256.19" type="priority"/>
    <node id="11635179688" x="3336.88" y="3188.03" type="priority"/>
    <node id="11635179692" x="3404.97" y="3296.74" type="right_before_left"/>
    <node id="11635179695" x="3445.64" y="3308.42" type="priority"/>
    <node id="11635179697" x="3557.61" y="2820.03" type="priority"/>
    <node id="11635179698" x="3601.51" y="2842.23" type="priority"/>
    <node id="11635179699" x="3831.71" y="2878.95" type="priority"/>
    <node id="11635179700" x="3897.80" y="2930.93" type="priority"/>
    <node id="11635179708" x="4585.18" y="2947.51" type="priority"/>
    <node id="11635179715" x="4526.58" y="2892.63" type="priority"/>
    <node id="11635179716" x="5446.22" y="2840.57" type="priority"/>
    <node id="11635179718" x="5378.96" y="2851.19" type="priority"/>
    <node id="11635736619" x="5941.93" y="4406.18" type="right_before_left"/>
    <node id="11635736627" x="5926.44" y="4246.84" type="right_before_left"/>
    <node id="11635736645" x="5858.98" y="4157.54" type="right_before_left"/>
    <node id="11635736659" x="5719.82" y="4125.94" type="right_before_left"/>
    <node id="11635736662" x="5701.64" y="4132.13" type="right_before_left"/>
    <node id="11635739272" x="5887.63" y="3968.42" type="right_before_left"/>
    <node id="11635739273" x="5905.17" y="3958.85" type="right_before_left"/>
    <node id="11635739276" x="5879.38" y="3992.25" type="right_before_left"/>
    <node id="11635739280" x="5897.20" y="3901.80" type="right_before_left"/>
    <node id="11635739286" x="5905.03" y="3877.40" type="right_before_left"/>
    <node id="11635739289" x="5916.38" y="3919.31" type="right_before_left"/>
    <node id="11635739294" x="5840.96" y="4100.95" type="right_before_left"/>
    <node id="11635739295" x="5899.72" y="4082.19" type="priority"/>
    <node id="11635739298" x="5867.42" y="4083.71" type="right_before_left"/>
    <node id="11635739301" x="5757.63" y="4135.76" type="right_before_left"/>
    <node id="11635739307" x="5702.48" y="4096.66" type="right_before_left"/>
    <node id="11635739319" x="5937.79" y="3852.91" type="right_before_left"/>
    <node id="11635739321" x="5963.19" y="3862.18" type="priority"/>
    <node id="11635739324" x="6038.47" y="3582.03" type="right_before_left"/>
    <node id="11635739341" x="5829.07" y="3573.00" type="right_before_left"/>
    <node id="11635739355" x="6138.87" y="3526.50" type="priority"/>
    <node id="11635739357" x="6113.52" y="3505.70" type="right_before_left"/>
    <node id="11635739369" x="6065.39" y="3577.56" type="priority"/>
    <node id="11635739370" x="6091.88" y="3592.83" type="priority"/>
    <node id="11635739371" x="6054.08" y="3382.09" type="priority"/>
    <node id="11635739372" x="6082.90" y="3406.54" type="right_before_left"/>
    <node id="11635739373" x="6019.82" y="3431.85" type="priority"/>
    <node id="11635739376" x="6050.64" y="3453.64" type="priority"/>
    <node id="11635739378" x="6081.72" y="3470.15" type="priority"/>
    <node id="11635739379" x="6094.17" y="3454.33" type="right_before_left"/>
    <node id="11635739380" x="6154.77" y="3505.13" type="priority"/>
    <node id="11635739383" x="6102.39" y="3382.26" type="right_before_left"/>
    <node id="11635739384" x="6079.33" y="3362.56" type="priority"/>
    <node id="11635739388" x="6204.62" y="3445.18" type="priority"/>
    <node id="11635739389" x="7287.80" y="2881.32" type="priority"/>
    <node id="11635739394" x="7205.43" y="2891.93" type="priority"/>
    <node id="11635739399" x="7253.81" y="2869.82" type="right_before_left"/>
    <node id="11635739401" x="7251.30" y="2828.33" type="priority"/>
    <node id="11635739402" x="7284.34" y="4063.04" type="priority"/>
    <node id="11635739403" x="7380.52" y="4029.76" type="priority"/>
    <node id="11635739410" x="6615.63" y="4274.11" type="priority"/>
    <node id="11635739411" x="6587.70" y="4353.58" type="right_before_left"/>
    <node id="11635739412" x="6737.02" y="4314.25" type="priority"/>
    <node id="11635739418" x="6517.41" y="4327.60" type="priority"/>
    <node id="11635739421" x="6995.94" y="4136.69" type="right_before_left"/>
    <node id="11635739423" x="6956.49" y="4165.70" type="right_before_left"/>
    <node id="11635739424" x="6971.71" y="4120.40" type="right_before_left"/>
    <node id="11635739425" x="7000.01" y="4124.44" type="right_before_left"/>
    <node id="11635739426" x="6974.80" y="4097.22" type="right_before_left"/>
    <node id="11635739430" x="6985.64" y="4167.70" type="right_before_left"/>
    <node id="11635739432" x="7010.19" y="4113.20" type="priority"/>
    <node id="11635739433" x="6902.91" y="4217.20" type="priority"/>
    <node id="11635739441" x="7046.73" y="4142.81" type="priority"/>
    <node id="11649256817" x="6741.91" y="523.69" type="priority"/>
    <node id="11649256819" x="7497.74" y="547.77" type="right_before_left"/>
    <node id="11649256826" x="7274.61" y="530.51" type="right_before_left"/>
    <node id="11649256834" x="8181.37" y="975.16" type="priority"/>
    <node id="11649256839" x="8204.19" y="1066.00" type="right_before_left"/>
    <node id="1165216737" x="3673.30" y="698.79" type="priority"/>
    <node id="1165216758" x="3030.25" y="91.94" type="dead_end"/>
    <node id="1165216774" x="3905.03" y="901.02" type="priority"/>
    <node id="1165216780" x="3711.54" y="729.13" type="priority"/>
    <node id="1165216808" x="3646.49" y="678.64" type="priority"/>
    <node id="1165216818" x="3032.51" y="89.13" type="dead_end"/>
    <node id="1165216839" x="3642.00" y="657.16" type="priority"/>
    <node id="1165216888" x="3037.76" y="82.46" type="dead_end"/>
    <node id="1165216953" x="3607.08" y="635.82" type="priority"/>
    <node id="1165216964" x="4004.35" y="972.32" type="priority"/>
    <node id="1165217047" x="4319.49" y="1288.07" type="dead_end" fringe="inner">
        <param key="buffer_stop" value="true"/>
    </node>
    <node id="1165217101" x="4130.54" y="1059.59" type="dead_end" fringe="inner">
        <param key="buffer_stop" value="true"/>
    </node>
    <node id="1165217102" x="4127.25" y="1075.70" type="dead_end" fringe="inner">
        <param key="buffer_stop" value="true"/>
    </node>
    <node id="1165217124" x="3867.69" y="871.66" type="priority"/>
    <node id="1165217143" x="3517.54" y="539.69" type="priority"/>
    <node id="1165217164" x="3035.32" y="85.27" type="dead_end"/>
    <node id="1165217190" x="3980.75" y="955.17" type="priority"/>
    <node id="1165217228" x="4291.70" y="1254.40" type="priority"/>
    <node id="1165217231" x="3684.07" y="702.89" type="priority"/>
    <node id="1165217254" x="3639.28" y="662.83" type="dead_end" fringe="inner">
        <param key="buffer_stop" value="true"/>
    </node>
    <node id="1165321164" x="5196.56" y="2162.39" type="dead_end"/>
    <node id="11654716775" x="6372.46" y="2494.46" type="priority"/>
    <node id="11654716785" x="6346.23" y="2556.67" type="priority"/>
    <node id="11654716786" x="7535.93" y="3659.78" type="priority"/>
    <node id="11654716798" x="7380.81" y="3677.70" type="priority"/>
    <node id="11658186781" x="5628.59" y="5722.30" type="priority"/>
    <node id="11658189836" x="4561.76" y="5029.92" type="priority"/>
    <node id="11658189855" x="4271.07" y="5183.46" type="right_before_left"/>
    <node id="11658189856" x="4913.15" y="5011.67" type="priority"/>
    <node id="11658199574" x="4637.36" y="5755.11" type="priority"/>
    <node id="11726966884" x="4460.07" y="920.09" type="right_before_left"/>
    <node id="11726966885" x="4447.28" y="886.46" type="priority"/>
    <node id="11755747533" x="7293.37" y="3993.75" type="priority"/>
    <node id="11757444877" x="7271.69" y="3437.92" type="priority"/>
    <node id="11766086825" x="4026.30" y="2383.79" type="priority"/>
    <node id="11766086827" x="4006.82" y="2432.01" type="priority"/>
    <node id="11766086828" x="4025.02" y="2443.26" type="priority"/>
    <node id="11766086830" x="4053.06" y="2398.23" type="priority"/>
    <node id="11766086832" x="4016.93" y="2419.43" type="priority"/>
    <node id="11766086833" x="4033.54" y="2429.76" type="priority"/>
    <node id="11782818913" x="3252.21" y="4797.28" type="priority"/>
    <node id="11782818917" x="3286.34" y="4827.20" type="right_before_left"/>
    <node id="1187971779" x="5868.97" y="2776.21" type="dead_end"/>
    <node id="1187971829" x="5838.02" y="2746.23" type="dead_end"/>
    <node id="11893488573" x="3405.66" y="565.26" type="priority"/>
    <node id="11893488584" x="3235.04" y="687.44" type="priority"/>