<?xml version="1.0" encoding="UTF-8"?>

<!-- generated on 2025-04-04 16:24:17 by Eclipse SUMO netconvert Version 1.19.0
<configuration xmlns:xsi="http://www.w3.org/2001/XMLSchema-instance" xsi:noNamespaceSchemaLocation="http://sumo.dlr.de/xsd/netconvertConfiguration.xsd">

    <input>
        <sumo-net-file value="gargenville/gargenville.net.xml"/>
    </input>

    <output>
        <plain-output-prefix value="gargenville/gargenville"/>
    </output>

    <processing>
        <geometry.min-radius.fix.railways value="false"/>
        <geometry.max-grade.fix value="false"/>
        <offset.disable-normalization value="true"/>
        <lefthand value="0"/>
    </processing>

    <tls_building>
        <tls.ignore-internal-junction-jam value="1"/>
    </tls_building>

    <junctions>
        <no-turnarounds value="true"/>
        <junctions.corner-detail value="5"/>
        <junctions.limit-turn-speed value="5.50"/>
        <rectangular-lane-cut value="0"/>
    </junctions>

    <pedestrian>
        <walkingareas value="0"/>
    </pedestrian>

</configuration>
-->

<nodes version="1.16" xmlns:xsi="http://www.w3.org/2001/XMLSchema-instance" xsi:noNamespaceSchemaLocation="http://sumo.dlr.de/xsd/nodes_file.xsd">
    <location netOffset="-408034.43,-5420250.66" convBoundary="0.00,0.00,12103.84,8944.13" origBoundary="1.743019,48.929417,2.002758,49.009799" projParameter="+proj=utm +zone=31 +ellps=WGS84 +datum=WGS84 +units=m +no_defs"/>

    <node id="10085046067" x="4831.01" y="6806.30" type="priority"/>
    <node id="10101092330" x="6943.27" y="1327.54" type="priority"/>
    <node id="10101092342" x="6862.28" y="1571.77" type="dead_end"/>
    <node id="10101092343" x="6879.29" y="1596.84" type="dead_end"/>
    <node id="10101092344" x="7005.97" y="1239.02" type="priority"/>
    <node id="10106633591" x="6713.23" y="2009.21" type="priority"/>
    <node id="10106633592" x="6777.67" y="2028.96" type="priority"/>
    <node id="10106633598" x="7099.58" y="1274.68" type="priority"/>
    <node id="10126711819" x="4705.35" y="3752.82" type="priority"/>
    <node id="10126711821" x="4709.82" y="3762.06" type="priority"/>
    <node id="10126711839" x="4883.00" y="3105.08" type="priority"/>
    <node id="10126711845" x="4845.33" y="3023.48" type="priority"/>
    <node id="10126997139" x="8263.11" y="6029.53" type="priority"/>
    <node id="10187882364" x="4915.00" y="3490.17" type="priority"/>
    <node id="10187882371" x="6300.18" y="3147.72" type="priority"/>
    <node id="10187882381" x="6319.72" y="3049.05" type="priority"/>
    <node id="10187882383" x="6296.14" y="3116.26" type="priority"/>
    <node id="10187882387" x="6199.22" y="3114.64" type="priority"/>
    <node id="10187882391" x="6659.31" y="3269.36" type="priority"/>
    <node id="10187882392" x="6664.61" y="3262.29" type="priority"/>
    <node id="10187882393" x="6657.49" y="3262.30" type="priority"/>
    <node id="10187882397" x="6645.15" y="3247.49" type="priority"/>
    <node id="10187882400" x="6587.32" y="3226.42" type="priority"/>
    <node id="10197595770" x="6611.79" y="2083.70" type="priority"/>
    <node id="10197595777" x="6507.61" y="2512.19" type="priority"/>
    <node id="10197595781" x="4785.91" y="3559.72" type="priority"/>
    <node id="10197595782" x="4792.00" y="3557.81" type="priority"/>
    <node id="10197595783" x="4794.04" y="3589.92" type="priority"/>
    <node id="10197600039" x="4902.39" y="4176.87" type="priority"/>
    <node id="10210550731" x="8418.19" y="4085.75" type="priority"/>
    <node id="10210550732" x="8418.40" y="4087.54" type="dead_end"/>
    <node id="10236118722" x="5112.88" y="2690.66" type="priority"/>
    <node id="10236118727" x="5059.99" y="2711.26" type="priority"/>
    <node id="10238128097" x="4798.31" y="2544.97" type="priority"/>
    <node id="10238128103" x="4974.35" y="2408.58" type="priority"/>
    <node id="10238158922" x="4783.76" y="2587.09" type="priority"/>
    <node id="10245517826" x="5075.61" y="2327.82" type="priority"/>
    <node id="10245517828" x="5110.46" y="2310.25" type="priority"/>
    <node id="10245517829" x="5133.66" y="2306.82" type="priority"/>
    <node id="10245517831" x="5174.49" y="2284.48" type="priority"/>
    <node id="10266998716" x="5686.32" y="6563.41" type="priority"/>
    <node id="1027012927" x="7063.62" y="6758.32" type="priority"/>
    <node id="1027012929" x="6464.20" y="8199.83" type="priority"/>
    <node id="1027012946" x="8548.15" y="6926.76" type="priority"/>
    <node id="1027012950" x="7076.52" y="8124.44" type="priority"/>
    <node id="1027012960" x="8663.33" y="6921.97" type="right_before_left"/>
    <node id="1027012961" x="6685.41" y="7884.60" type="priority"/>
    <node id="1027012976" x="6182.26" y="6575.37" type="priority"/>
    <node id="1027012978" x="8616.32" y="6883.13" type="priority"/>
    <node id="1027012989" x="8657.58" y="6824.66" type="priority"/>
    <node id="1027012991" x="6148.42" y="6534.08" type="priority"/>
    <node id="1027013045" x="7070.60" y="6402.47" type="priority"/>
    <node id="1027013052" x="7520.54" y="6966.72" type="priority"/>
    <node id="1027013076" x="6602.44" y="7549.31" type="right_before_left"/>
    <node id="1027013080" x="5015.76" y="7302.42" type="priority"/>
    <node id="1027013107" x="6065.21" y="8366.41" type="priority"/>
    <node id="1027013114" x="6768.45" y="7398.36" type="right_before_left"/>
    <node id="1027013116" x="7588.48" y="7257.92" type="priority"/>
    <node id="1027013120" x="8654.68" y="6943.38" type="priority"/>
    <node id="1027013124" x="7045.42" y="6719.57" type="priority"/>
    <node id="1027013131" x="6094.94" y="6584.15" type="priority"/>
    <node id="1027013137" x="6125.02" y="7446.26" type="priority"/>
    <node id="1027013143" x="7471.41" y="6906.54" type="priority"/>
    <node id="1027013154" x="8664.71" y="6796.03" type="right_before_left"/>
    <node id="1027013165" x="8539.31" y="6955.39" type="priority"/>
    <node id="1027013171" x="7162.34" y="6792.10" type="priority"/>
    <node id="1027013182" x="6428.41" y="7110.27" type="priority"/>
    <node id="1027013192" x="7551.44" y="7080.21" type="priority"/>
    <node id="1027013200" x="6506.62" y="6872.23" type="priority"/>
    <node id="1027013214" x="8030.93" y="7332.12" type="priority"/>
    <node id="1027013218" x="7166.08" y="7557.78" type="priority"/>
    <node id="1027013237" x="6806.34" y="7198.70" type="priority"/>
    <node id="1027013249" x="8650.72" y="6915.85" type="right_before_left"/>
    <node id="1027013279" x="7407.19" y="6889.51" type="priority"/>
    <node id="1027013299" x="8638.66" y="6909.98" type="right_before_left"/>
    <node id="1027013308" x="6179.10" y="6503.93" type="priority"/>
    <node id="1027013310" x="7466.87" y="7068.84" type="priority"/>
    <node id="1027013318" x="7053.10" y="6354.42" type="priority"/>
    <node id="1027013334" x="8134.82" y="7684.33" type="right_before_left"/>
    <node id="1027013377" x="6291.20" y="6598.01" type="priority"/>
    <node id="1027013384" x="7058.28" y="6786.68" type="priority"/>
    <node id="1027013422" x="6195.84" y="6512.09" type="priority"/>
    <node id="1027013441" x="7459.07" y="7681.01" type="priority"/>
    <node id="1027013467" x="8641.37" y="6938.87" type="priority"/>
    <node id="1027013468" x="7982.41" y="7486.13" type="priority"/>
    <node id="1027013472" x="6632.47" y="6154.51" type="priority"/>
    <node id="1027013488" x="6783.39" y="7517.57" type="right_before_left"/>
    <node id="1027013493" x="6208.34" y="6547.10" type="priority"/>
    <node id="1027013513" x="6172.16" y="6539.29" type="priority"/>
    <node id="1027013516" x="8381.36" y="7946.56" type="priority"/>
    <node id="1027013518" x="7935.62" y="7554.54" type="priority"/>
    <node id="1027013524" x="6879.86" y="6709.22" type="priority"/>
    <node id="1027013531" x="7460.67" y="6957.08" type="right_before_left"/>
    <node id="1027013536" x="7400.77" y="6944.98" type="priority"/>
    <node id="1027013542" x="8452.38" y="7354.67" type="right_before_left"/>
    <node id="1027013546" x="6200.81" y="6579.56" type="priority"/>
    <node id="1027013564" x="6188.90" y="6542.91" type="priority"/>
    <node id="1027013570" x="7069.06" y="6721.06" type="priority"/>
    <node id="1027013582" x="7483.73" y="7081.40" type="priority"/>
    <node id="1027013590" x="6319.87" y="7563.05" type="right_before_left"/>
    <node id="10295115918" x="3868.12" y="6797.26" type="priority"/>
    <node id="10295115919" x="3892.17" y="6741.70" type="right_before_left"/>
    <node id="10295128417" x="3870.57" y="7183.12" type="priority"/>
    <node id="1029875117" x="5051.60" y="3621.72" type="right_before_left"/>
    <node id="1029875172" x="5762.37" y="3668.30" type="priority"/>
    <node id="1029875183" x="4924.58" y="4145.56" type="priority"/>
    <node id="1029876038" x="5078.81" y="3565.63" type="priority"/>
    <node id="1029876094" x="5524.60" y="3684.05" type="priority"/>
    <node id="1029876098" x="5002.89" y="3579.36" type="right_before_left"/>
    <node id="1029876145" x="4247.21" y="5238.57" type="priority"/>
    <node id="1029876152" x="5040.05" y="3682.04" type="priority"/>
    <node id="1029876206" x="4634.46" y="3906.83" type="priority"/>
    <node id="1029876258" x="4718.41" y="3841.53" type="dead_end"/>
    <node id="1029876454" x="5604.32" y="3287.75" type="priority"/>
    <node id="1029876463" x="5006.06" y="3616.53" type="priority"/>
    <node id="1029876504" x="4988.81" y="3580.48" type="priority"/>
    <node id="1029876518" x="8818.36" y="4541.72" type="priority"/>
    <node id="1029876556" x="5888.01" y="3221.84" type="priority"/>
    <node id="1029876609" x="6981.93" y="3791.00" type="priority"/>
    <node id="1029876723" x="3972.17" y="3826.95" type="priority"/>
    <node id="10300965108" x="8235.68" y="2478.41" type="priority"/>
    <node id="10301001609" x="8206.67" y="2481.42" type="right_before_left"/>
    <node id="1031488695" x="4347.91" y="5959.02" type="priority"/>
    <node id="1031489021" x="4432.00" y="6123.63" type="priority"/>
    <node id="1031489120" x="4322.09" y="5845.73" type="priority"/>
    <node id="1031489154" x="4224.77" y="7354.30" type="right_before_left"/>
    <node id="1031489248" x="4384.80" y="5863.30" type="priority"/>
    <node id="1031489403" x="5359.02" y="7360.45" type="priority"/>
    <node id="1031489497" x="4331.29" y="5888.06" type="priority"/>
    <node id="1031489504" x="4473.02" y="6380.89" type="priority"/>
    <node id="1031489674" x="4336.83" y="6385.55" type="priority"/>
    <node id="1031489679" x="4408.79" y="5976.49" type="priority"/>
    <node id="1031489726" x="4248.49" y="5958.64" type="priority"/>
    <node id="10568547145" x="6448.72" y="2511.51" type="priority"/>
    <node id="10568547158" x="7868.57" y="4023.56" type="priority"/>
    <node id="10568547176" x="8088.93" y="3546.77" type="priority"/>
    <node id="10586669366" x="8240.99" y="1529.34" type="priority"/>
    <node id="10586669374" x="8305.15" y="1767.04" type="priority"/>
    <node id="10586669375" x="8284.79" y="1692.50" type="priority"/>
    <node id="10586669379" x="8268.25" y="1656.95" type="right_before_left"/>
    <node id="10586669386" x="8252.23" y="1576.22" type="right_before_left"/>
    <node id="10587136488" x="7972.71" y="3857.37" type="priority"/>
    <node id="10587136489" x="7891.16" y="3919.01" type="priority"/>
    <node id="10587136495" x="7907.62" y="3923.18" type="right_before_left"/>
    <node id="10587185405" x="7934.88" y="3842.89" type="right_before_left"/>
    <node id="10587185406" x="7914.28" y="3837.46" type="priority"/>
    <node id="10587185408" x="7973.40" y="3854.02" type="priority"/>
    <node id="10587185409" x="7892.63" y="3973.92" type="priority"/>
    <node id="10587185417" x="7933.48" y="3949.11" type="priority"/>
    <node id="10587185419" x="7943.43" y="3937.71" type="priority"/>
    <node id="10587185428" x="6705.92" y="3262.72" type="priority"/>
    <node id="10587185438" x="6185.86" y="3388.80" type="priority"/>
    <node id="10587185451" x="7833.81" y="4237.02" type="priority"/>
    <node id="10587185454" x="7806.02" y="4311.84" type="priority"/>
    <node id="10587185456" x="7810.38" y="4270.72" type="priority"/>
    <node id="10587185529" x="7575.48" y="3790.85" type="priority"/>
    <node id="10587185530" x="7562.14" y="3711.29" type="priority"/>
    <node id="10587185552" x="7123.02" y="3317.44" type="priority"/>
    <node id="10588644118" x="4191.63" y="3640.98" type="priority"/>
    <node id="10588644128" x="4422.09" y="3551.53" type="priority"/>
    <node id="10588644129" x="4376.29" y="3557.26" type="priority"/>
    <node id="10588644140" x="5842.24" y="3027.98" type="priority"/>
    <node id="10588644143" x="5954.28" y="3034.09" type="priority"/>
    <node id="10588644148" x="5859.57" y="3050.45" type="right_before_left"/>
    <node id="10588644179" x="5144.90" y="3827.01" type="priority"/>
    <node id="10588644189" x="5088.41" y="3649.27" type="priority"/>
    <node id="10588644296" x="5987.70" y="4238.58" type="priority"/>
    <node id="10588644298" x="6004.44" y="4271.89" type="priority"/>
    <node id="10588644299" x="5994.79" y="4245.99" type="right_before_left"/>
    <node id="10588741593" x="8805.09" y="4114.16" type="priority"/>
    <node id="10588741600" x="8798.77" y="4123.90" type="priority"/>
    <node id="10588741605" x="8821.19" y="4131.24" type="priority"/>
    <node id="10588741608" x="8822.79" y="4122.31" type="priority"/>
    <node id="1061512819" x="5675.34" y="6486.64" type="priority"/>
    <node id="1061512863" x="4096.29" y="5904.96" type="priority"/>
    <node id="1061512875" x="5633.16" y="6471.00" type="priority"/>
    <node id="1061512895" x="4900.39" y="5908.45" type="priority"/>
    <node id="1061512909" x="5614.28" y="6476.27" type="priority"/>
    <node id="1061512927" x="5675.34" y="6471.70" type="priority"/>
    <node id="1061512948" x="4745.96" y="5995.94" type="priority"/>
    <node id="1061512968" x="5662.61" y="6525.06" type="priority"/>
    <node id="1061513004" x="5600.66" y="6475.97" type="priority"/>
    <node id="1061513051" x="5627.23" y="6519.06" type="priority"/>
    <node id="1061513091" x="5708.58" y="6472.26" type="priority"/>
    <node id="1061513111" x="4738.60" y="6068.57" type="priority"/>
    <node id="1061513114" x="5663.10" y="6471.51" type="priority"/>
    <node id="1061513141" x="4775.32" y="6012.09" type="priority"/>
    <node id="1061513215" x="5684.36" y="6543.06" type="priority"/>
    <node id="1061513265" x="4843.87" y="5863.06" type="right_before_left"/>
    <node id="1061513298" x="5648.71" y="6471.26" type="priority"/>
    <node id="1061513321" x="5647.99" y="6525.17" type="priority"/>
    <node id="1061513352" x="5677.03" y="6551.55" type="priority"/>
    <node id="1061513370" x="5630.32" y="6525.30" type="priority"/>
    <node id="1061513408" x="4938.97" y="5862.37" type="priority"/>
    <node id="1061513490" x="5691.15" y="6471.97" type="priority"/>
    <node id="1061513502" x="4733.93" y="6009.12" type="priority"/>
    <node id="1061513505" x="5690.66" y="6486.87" type="priority"/>
    <node id="1061513667" x="4885.22" y="5970.45" type="priority"/>
    <node id="1061513678" x="4694.65" y="5995.75" type="priority"/>
    <node id="1065596859" x="6828.77" y="5987.11" type="priority"/>
    <node id="1065596931" x="4722.57" y="4941.71" type="priority"/>
    <node id="10696009898" x="8473.26" y="3620.36" type="priority"/>
    <node id="10696012765" x="6781.23" y="1899.40" type="priority"/>
    <node id="10717904958" x="4978.27" y="3707.54" type="priority"/>
    <node id="10717904969" x="5005.52" y="3669.70" type="priority"/>
    <node id="10717904989" x="5007.22" y="3711.28" type="priority"/>
    <node id="10717904994" x="5016.15" y="3701.89" type="priority"/>
    <node id="10717905018" x="4973.70" y="3701.06" type="priority"/>
    <node id="10717905073" x="4919.14" y="4118.37" type="priority"/>
    <node id="10722339791" x="7465.61" y="7011.13" type="priority"/>
    <node id="10722339792" x="7524.94" y="7029.19" type="priority"/>
    <node id="10727872504" x="4917.96" y="6819.86" type="priority"/>
    <node id="10727897910" x="4901.56" y="6713.50" type="priority"/>
    <node id="10727897913" x="4780.30" y="6803.03" type="priority"/>
    <node id="10727897914" x="4823.59" y="6806.06" type="dead_end"/>
    <node id="10732448088" x="3968.05" y="6919.24" type="priority"/>
    <node id="10732448103" x="4270.82" y="6906.04" type="priority"/>
    <node id="10732448104" x="4326.16" y="6972.03" type="priority"/>
    <node id="10732449017" x="3856.89" y="6432.14" type="priority"/>
    <node id="10732449020" x="3867.68" y="6344.07" type="priority"/>
    <node id="10732449029" x="4060.57" y="6304.73" type="priority"/>
    <node id="10732449034" x="3907.34" y="6048.71" type="priority"/>
    <node id="10732449037" x="4214.15" y="6682.56" type="priority"/>
    <node id="10732449039" x="4200.31" y="6663.41" type="priority"/>
    <node id="10732449044" x="4182.77" y="6748.82" type="priority"/>
    <node id="10732449045" x="4199.92" y="6769.77" type="priority"/>
    <node id="10732449048" x="4160.91" y="6745.87" type="priority"/>
    <node id="10732466407" x="7625.66" y="7129.80" type="priority"/>
    <node id="10732466408" x="7455.54" y="7211.53" type="priority"/>
    <node id="10732466411" x="7401.72" y="7242.58" type="right_before_left"/>
    <node id="10732466412" x="8673.01" y="7359.05" type="priority"/>
    <node id="10732466416" x="8609.50" y="7359.85" type="priority"/>
    <node id="10732466417" x="5036.79" y="6931.57" type="priority"/>
    <node id="10732466418" x="7183.17" y="7215.39" type="priority"/>
    <node id="10732466420" x="7202.06" y="7182.55" type="priority"/>
    <node id="10733720779" x="4941.12" y="6074.63" type="priority"/>
    <node id="10733720789" x="4933.19" y="6071.63" type="priority"/>
    <node id="10733720790" x="4932.45" y="6072.09" type="priority"/>
    <node id="10733723620" x="4939.42" y="5773.55" type="priority"/>
    <node id="10733723628" x="4930.34" y="5776.58" type="priority"/>
    <node id="10733723635" x="4928.05" y="5769.74" type="priority"/>
    <node id="10733723639" x="4927.36" y="5760.08" type="priority"/>
    <node id="10733723655" x="4935.11" y="5765.83" type="priority"/>
    <node id="10733723661" x="4939.40" y="5911.88" type="priority"/>
    <node id="10735976560" x="7194.90" y="4562.06" type="priority"/>
    <node id="10735976583" x="7183.99" y="4566.46" type="priority"/>
    <node id="10735976584" x="7187.76" y="4576.74" type="priority"/>
    <node id="10735976585" x="7198.09" y="4574.46" type="priority"/>
    <node id="10736015236" x="6282.89" y="4329.53" type="priority"/>
    <node id="10736015240" x="6310.19" y="4323.17" type="priority"/>
    <node id="10736015248" x="6299.75" y="4334.28" type="priority"/>
    <node id="10736015330" x="8353.76" y="3548.82" type="priority"/>
    <node id="10736015340" x="8379.03" y="3551.08" type="priority"/>
    <node id="10736015480" x="7765.93" y="5093.84" type="priority"/>
    <node id="10736015512" x="7724.99" y="5377.20" type="right_before_left"/>
    <node id="10736015513" x="7722.00" y="5385.06" type="right_before_left"/>
    <node id="10736015514" x="7758.63" y="5427.70" type="right_before_left"/>
    <node id="10736015515" x="7764.56" y="5412.24" type="right_before_left"/>
    <node id="10736015518" x="7785.97" y="5425.92" type="right_before_left"/>
    <node id="10736015520" x="7653.13" y="5298.87" type="priority"/>
    <node id="10736015522" x="7650.12" y="5330.69" type="right_before_left"/>
    <node id="10736015533" x="7456.93" y="5222.68" type="priority"/>
    <node id="10736015538" x="7465.04" y="5222.49" type="priority"/>
    <node id="10736015539" x="7472.70" y="5216.49" type="priority"/>
    <node id="10736015540" x="7473.76" y="5203.86" type="priority"/>
    <node id="10736015550" x="7448.53" y="5201.95" type="priority"/>
    <node id="10736015565" x="7465.53" y="5195.91" type="priority"/>
    <node id="10736015661" x="7511.20" y="4794.79" type="priority"/>
    <node id="10736015666" x="7492.29" y="4797.26" type="priority"/>
    <node id="10736015667" x="7485.76" y="4795.26" type="priority"/>
    <node id="10736015668" x="7493.32" y="4818.53" type="priority"/>
    <node id="10736015669" x="7499.58" y="4837.83" type="priority"/>
    <node id="10736015670" x="7508.38" y="4840.54" type="priority"/>
    <node id="10736015671" x="7518.05" y="4836.97" type="priority"/>
    <node id="10736015672" x="7520.88" y="4832.82" type="priority"/>
    <node id="10736015691" x="7499.93" y="4807.21" type="priority"/>
    <node id="10736015693" x="7526.84" y="4802.67" type="priority"/>
    <node id="10736015695" x="7517.30" y="4786.48" type="priority"/>
    <node id="10736015705" x="7493.54" y="4828.51" type="priority"/>
    <node id="10736015775" x="8120.41" y="2837.33" type="priority"/>
    <node id="10736015785" x="8173.60" y="2732.87" type="right_before_left"/>
    <node id="10736015786" x="8175.96" y="2754.33" type="priority"/>
    <node id="10736015796" x="8322.02" y="2536.28" type="priority"/>
    <node id="10736015797" x="8323.42" y="2547.85" type="priority"/>
    <node id="10736015798" x="8310.53" y="2550.27" type="priority"/>
    <node id="10736015819" x="8309.99" y="2535.81" type="priority"/>
    <node id="10736015833" x="8354.39" y="2617.40" type="priority"/>
    <node id="10736015865" x="8482.82" y="2843.20" type="priority"/>
    <node id="10736015871" x="8505.32" y="2846.42" type="priority"/>
    <node id="10736015888" x="8496.68" y="2809.94" type="priority"/>
    <node id="10736015906" x="8499.61" y="2810.01" type="priority"/>
    <node id="10736015918" x="8489.04" y="2825.77" type="priority"/>
    <node id="10736015920" x="8491.33" y="2828.30" type="priority"/>
    <node id="10736015922" x="8507.82" y="2822.85" type="priority"/>
    <node id="10736015947" x="8294.56" y="3148.02" type="priority"/>
    <node id="10736015948" x="8298.97" y="3150.05" type="priority"/>
    <node id="10736015963" x="8289.32" y="3201.06" type="priority"/>
    <node id="10736015983" x="8278.37" y="3170.94" type="priority"/>
    <node id="10736015987" x="8281.52" y="3167.10" type="priority"/>
    <node id="10736015998" x="8284.36" y="3184.06" type="priority"/>
    <node id="10736016137" x="7821.44" y="4294.24" type="priority"/>
    <node id="10736016180" x="7700.81" y="4565.39" type="priority"/>
    <node id="10736796412" x="4704.71" y="3581.41" type="traffic_light" tl="10736796412"/>
    <node id="10736796420" x="4709.72" y="3590.82" type="priority"/>
    <node id="10736796421" x="4699.87" y="3561.53" type="priority"/>
    <node id="10736796422" x="4699.86" y="3551.27" type="traffic_light" tl="10736796422"/>
    <node id="10736796484" x="5257.53" y="2435.98" type="priority"/>
    <node id="10834546326" x="8338.55" y="3685.25" type="dead_end"/>
    <node id="10834546339" x="8404.36" y="3656.57" type="priority"/>
    <node id="10834546340" x="8405.68" y="3708.78" type="dead_end"/>
    <node id="10834546362" x="8430.02" y="3491.89" type="priority"/>
    <node id="10867789151" x="8511.77" y="1354.73" type="priority"/>
    <node id="10874163051" x="7536.75" y="2975.27" type="priority"/>
    <node id="10874163052" x="7533.87" y="2979.35" type="dead_end"/>
    <node id="10874163054" x="7517.96" y="2978.27" type="dead_end"/>
    <node id="10874163055" x="7509.84" y="2986.32" type="priority"/>
    <node id="10874163062" x="7565.87" y="3040.09" type="priority"/>
    <node id="10884373574" x="6752.52" y="1927.38" type="dead_end"/>
    <node id="10884373588" x="8721.13" y="3328.08" type="priority"/>
    <node id="10884373590" x="8583.00" y="3284.30" type="priority"/>
    <node id="10884373594" x="5903.88" y="2972.90" type="priority"/>
    <node id="10884373595" x="5865.52" y="2954.73" type="priority"/>
    <node id="10884395405" x="8189.54" y="3225.52" type="priority"/>
    <node id="10884395415" x="8160.49" y="3274.28" type="priority"/>
    <node id="10884395418" x="8105.26" y="3362.70" type="priority"/>
    <node id="10884395422" x="8125.03" y="3352.44" type="right_before_left"/>
    <node id="10884395427" x="8152.50" y="3354.33" type="priority"/>
    <node id="10884395428" x="8147.84" y="3306.59" type="priority"/>
    <node id="10884395432" x="7841.11" y="3398.86" type="priority"/>
    <node id="10884395433" x="7891.19" y="3415.78" type="priority"/>
    <node id="10895012525" x="8091.01" y="4708.25" type="priority"/>
    <node id="10895012532" x="8108.30" y="4730.19" type="priority"/>
    <node id="10937816546" x="6883.28" y="6700.99" type="priority"/>
    <node id="10937816555" x="7356.88" y="7237.48" type="priority"/>
    <node id="10992602751" x="6334.47" y="3140.29" type="priority"/>
    <node id="10992602754" x="6334.97" y="3117.79" type="right_before_left"/>
    <node id="11010027668" x="7531.56" y="7076.50" type="dead_end"/>
    <node id="11010027676" x="7537.98" y="7019.18" type="dead_end"/>
    <node id="11010027684" x="7626.41" y="7002.49" type="dead_end"/>
    <node id="11010027688" x="7617.32" y="7015.16" type="dead_end"/>
    <node id="11010027692" x="7548.35" y="7020.41" type="right_before_left"/>
    <node id="11010027694" x="7530.76" y="7014.07" type="dead_end"/>
    <node id="11010027697" x="7600.30" y="7005.39" type="dead_end"/>
    <node id="11010027700" x="7531.21" y="7005.10" type="dead_end"/>
    <node id="11010027703" x="7523.99" y="7069.94" type="dead_end"/>
    <node id="11010077607" x="7527.91" y="7080.65" type="dead_end"/>
    <node id="11010077608" x="7529.55" y="7078.91" type="dead_end"/>
    <node id="11010077609" x="7520.62" y="7074.12" type="dead_end"/>
    <node id="11010077610" x="7523.01" y="7071.16" type="dead_end"/>
    <node id="11010077631" x="7547.36" y="7049.14" type="priority"/>
    <node id="11019594976" x="5029.57" y="2370.96" type="priority"/>
    <node id="11019594977" x="5009.25" y="2348.70" type="priority"/>
    <node id="11019594978" x="4994.68" y="2363.43" type="priority"/>
    <node id="11019594979" x="5026.71" y="2332.63" type="priority"/>
    <node id="11019594991" x="5181.02" y="2367.32" type="priority"/>
    <node id="11019612299" x="4691.67" y="1569.77" type="priority"/>
    <node id="11019612300" x="4773.49" y="1508.08" type="priority"/>
    <node id="11019612301" x="4723.90" y="1540.27" type="priority"/>
    <node id="11019612302" x="4735.98" y="1559.04" type="priority"/>
    <node id="11019612303" x="4716.92" y="1529.57" type="priority"/>
    <node id="11019612327" x="4996.74" y="1917.90" type="priority"/>
    <node id="11019612328" x="4914.14" y="1950.37" type="priority"/>
    <node id="11034569766" x="7868.26" y="3225.86" type="right_before_left"/>
    <node id="11034569767" x="7871.99" y="3215.81" type="priority"/>
    <node id="11034569768" x="7863.99" y="3241.28" type="right_before_left"/>
    <node id="11034569769" x="7806.35" y="3228.23" type="priority"/>
    <node id="11034569770" x="7858.01" y="3260.65" type="right_before_left"/>
    <node id="11034569771" x="7833.36" y="3254.49" type="priority"/>
    <node id="11034569773" x="7837.80" y="3186.39" type="priority"/>
    <node id="11034569792" x="7281.76" y="3057.44" type="priority"/>
    <node id="11129269900" x="6396.64" y="3066.21" type="priority"/>
    <node id="11129269901" x="6407.96" y="3086.10" type="priority"/>
    <node id="11129269902" x="6391.93" y="3080.45" type="priority"/>
    <node id="11129269903" x="6454.88" y="3120.24" type="priority"/>
    <node id="11299498412" x="6541.41" y="2461.84" type="priority" fringe="inner">
        <param key="buffer_stop" value="true"/>
    </node>
    <node id="11299498413" x="6590.28" y="2478.71" type="priority" fringe="inner">
        <param key="buffer_stop" value="true"/>
    </node>
    <node id="11299498415" x="6539.07" y="2469.13" type="priority" fringe="inner">
        <param key="buffer_stop" value="true"/>
    </node>
    <node id="11299498416" x="6587.45" y="2485.91" type="priority" fringe="inner">
        <param key="buffer_stop" value="true"/>
    </node>
    <node id="11299498419" x="6567.41" y="2466.53" type="priority" fringe="inner">
        <param key="buffer_stop" value="true"/>
    </node>
    <node id="11299498421" x="6583.38" y="2497.95" type="right_before_left"/>
    <node id="11319418101" x="8598.95" y="2803.87" type="dead_end"/>
    <node id="11319418111" x="8175.91" y="3567.11" type="priority"/>
    <node id="11319418117" x="8258.82" y="3567.97" type="priority"/>
    <node id="11319418125" x="7566.36" y="3082.89" type="priority"/>
    <node id="11334801322" x="3951.48" y="6749.84" type="right_before_left"/>
    <node id="11334801324" x="3921.55" y="6728.76" type="right_before_left"/>
    <node id="11334870009" x="5119.17" y="5265.14" type="dead_end"/>
    <node id="11334870040" x="4208.52" y="5714.73" type="dead_end"/>
    <node id="11334870051" x="4189.94" y="5743.36" type="priority"/>
    <node id="11362549360" x="4860.54" y="3158.40" type="priority"/>
    <node id="11362549365" x="4842.99" y="3128.51" type="dead_end"/>
    <node id="11524005990" x="8006.53" y="3299.37" type="right_before_left"/>
    <node id="11524005996" x="7997.77" y="3277.66" type="priority"/>
    <node id="11524005998" x="8008.31" y="3276.73" type="priority"/>
    <node id="11524298726" x="7864.14" y="3359.82" type="priority"/>
    <node id="11524298727" x="7860.36" y="3382.10" type="priority"/>
    <node id="11524298728" x="7862.55" y="3370.38" type="priority"/>
    <node id="11524320874" x="8621.80" y="2566.75" type="priority"/>
    <node id="11524320877" x="8552.42" y="2529.14" type="right_before_left"/>
    <node id="11524320882" x="8563.38" y="2467.48" type="right_before_left"/>
    <node id="11524360829" x="8028.08" y="3470.72" type="priority"/>
    <node id="11524360830" x="8032.07" y="3457.25" type="right_before_left"/>
    <node id="11524360831" x="8060.50" y="3473.38" type="priority"/>