<?xml version="1.0" encoding="UTF-8"?>

<!-- generated on 2025-04-04 16:24:17 by Eclipse SUMO netconvert Version 1.19.0
<configuration xmlns:xsi="http://www.w3.org/2001/XMLSchema-instance" xsi:noNamespaceSchemaLocation="http://sumo.dlr.de/xsd/netconvertConfiguration.xsd">

    <input>
        <sumo-net-file value="gargenville/gargenville.net.xml"/>
    </input>

    <output>
        <plain-output-prefix value="gargenville/gargenville"/>
    </output>

    <processing>
        <geometry.min-radius.fix.railways value="false"/>
        <geometry.max-grade.fix value="false"/>
        <offset.disable-normalization value="true"/>
        <lefthand value="0"/>
    </processing>

    <tls_building>
        <tls.ignore-internal-junction-jam value="1"/>
    </tls_building>

    <junctions>
        <no-turnarounds value="true"/>
        <junctions.corner-detail value="5"/>
        <junctions.limit-turn-speed value="5.50"/>
        <rectangular-lane-cut value="0"/>
    </junctions>

    <pedestrian>
        <walkingareas value="0"/>
    </pedestrian>

</configuration>
-->

<tlLogics version="1.16" xmlns:xsi="http://www.w3.org/2001/XMLSchema-instance" xsi:noNamespaceSchemaLocation="http://sumo.dlr.de/xsd/tllogic_file.xsd">
    <tlLogic id="10736796412" type="static" programID="0" offset="0">
        <phase duration="82" state="G"/>
        <phase duration="3"  state="y"/>
        <phase duration="5"  state="r"/>
    </tlLogic>
    <tlLogic id="10736796422" type="static" programID="0" offset="0">
        <phase duration="82" state="G"/>
        <phase duration="3"  state="y"/>
        <phase duration="5"  state="r"/>
    </tlLogic>
    <tlLogic id="7554344645" type="static" programID="0" offset="0">
        <phase duration="82" state="G"/>
        <phase duration="3"  state="y"/>
        <phase duration="5"  state="r"/>
    </tlLogic>
    <tlLogic id="7554386579" type="static" programID="0" offset="0">
        <phase duration="82" state="G"/>
        <phase duration="3"  state="y"/>
        <phase duration="5"  state="r"/>
    </tlLogic>
    <tlLogic id="7554405025" type="static" programID="0" offset="0">
        <phase duration="82" state="G"/>
        <phase duration="3"  state="y"/>
        <phase duration="5"  state="r"/>
    </tlLogic>
    <tlLogic id="7554411269" type="static" programID="0" offset="0">
        <phase duration="82" state="G"/>
        <phase duration="3"  state="y"/>
        <phase duration="5"  state="r"/>
    </tlLogic>
    <tlLogic id="7554412883" type="static" programID="0" offset="0">
        <phase duration="82" state="G"/>
        <phase duration="3"  state="y"/>
        <phase duration="5"  state="r"/>
    </tlLogic>
    <tlLogic id="7554426685" type="static" programID="0" offset="0">
        <phase duration="82" state="G"/>
        <phase duration="3"  state="y"/>
        <phase duration="5"  state="r"/>
    </tlLogic>
    <tlLogic id="GS_cluster_343434554_5724022122" type="static" programID="0" offset="0">
        <phase duration="42" state="rrrrGGggrrrrGGgg"/>
        <phase duration="3"  state="rrrryyyyrrrryyyy"/>
        <phase duration="42" state="GGggrrrrGGggrrrr"/>
        <phase duration="3"  state="yyyyrrrryyyyrrrr"/>
    </tlLogic>
    <tlLogic id="cluster_1027012951_1027013042_1027013111_1027013254_#16more" type="static" programID="0" offset="0">
        <phase duration="25" state="GGgggggrrrrrrrrrrrrrrggggggggGGGGGGggggggggg"/>
        <phase duration="5"  state="yyyyyyyrrrrrrrrrrrrrryyyyyyyyyyyyyyyyyyyyyyy"/>
        <phase duration="25" state="rrrrrrrrrrrrrrGGGGGGgGGrrrrrrrrrrrrrrrrrrrrr"/>
        <phase duration="5"  state="rrrrrrrrrrrrrryyyyyyyyyrrrrrrrrrrrrrrrrrrrrr"/>
        <phase duration="25" state="rrrrrrrGGGGGGgGrrrrrrGrrrrrrrrrrrrrrrrrrrrrr"/>
        <phase duration="5"  state="rrrrrrryyyyyyyyrrrrrryrrrrrrrrrrrrrrrrrrrrrr"/>
    </tlLogic>
    <tlLogic id="cluster_1027013183_1027013596_1745202023_567890173_#1more" type="static" programID="0" offset="0">
        <phase duration="38" state="rrrGGGGgGGrrr"/>
        <phase duration="5"  state="rrryyyyyyyrrr"/>
        <phase duration="3"  state="rrrrrrrrrrrrr"/>
        <phase duration="38" state="GGgrrrrrrrGGg"/>
        <phase duration="5"  state="yyyrrrrrrryyy"/>
        <phase duration="1"  state="rrrrrrrrrrrrr"/>
    </tlLogic>
    <tlLogic id="cluster_11988024992_11988024993_7392838278_7392839199_#7more" type="static" programID="0" offset="0">
        <phase duration="20" state="rrrrrGGggrrrrrrrrrGGgg"/>
        <phase duration="6"  state="rrrrryyggrrrrrrrrryygg"/>
        <phase duration="6"  state="rrrrrrrGGrrrrrrrrrrrGG"/>
        <phase duration="6"  state="rrrrrrryyrrrrrrrrrrryy"/>
        <phase duration="20" state="GGGggrrrrGGggrrrrrrrrr"/>
        <phase duration="6"  state="yyyyyrrrryyyyrrrrrrrrr"/>
        <phase duration="20" state="rrrrrrrrrrrrrGGGGGrrrr"/>
        <phase duration="6"  state="rrrrrrrrrrrrryyyyyrrrr"/>
    </tlLogic>
    <tlLogic id="cluster_1360726039_656401115_7553823621" type="static" programID="0" offset="0">
        <phase duration="42" state="rrrggGGGG"/>
        <phase duration="3"  state="rrryyyyyy"/>
        <phase duration="42" state="GGGrrrrrr"/>
        <phase duration="3"  state="yyyrrrrrr"/>
    </tlLogic>
    <tlLogic id="cluster_1745201987_1745201992_1745202017_574287690_#2more" type="static" programID="0" offset="0">
        <phase duration="42" state="GGGggrrrrGGGggrrrr"/>
        <phase duration="3"  state="yyyyyrrrryyyyyrrrr"/>
        <phase duration="42" state="rrrrrGGggrrrrrGGgg"/>
        <phase duration="3"  state="rrrrryyyyrrrrryyyy"/>
    </tlLogic>
    <tlLogic id="cluster_1745202029_1745202040_1745202044_1745202050_#4more" type="static" programID="0" offset="0">
        <phase duration="42" state="GGGggrrrrGGGggrrrr"/>
        <phase duration="3"  state="yyyyyrrrryyyyyrrrr"/>
        <phase duration="41" state="rrrrrGGggrrrrrGGgg"/>
        <phase duration="3"  state="rrrrryyyyrrrrryyyy"/>
        <phase duration="1"  state="rrrrrrrrrrrrrrrrrr"/>
    </tlLogic>
    <tlLogic id="cluster_2295204636_475287986" type="static" programID="0" offset="0">
        <phase duration="42" state="GGGggrrrrGGGggrrrr"/>
        <phase duration="3"  state="yyyyyrrrryyyyyrrrr"/>
        <phase duration="42" state="rrrrrGGggrrrrrGGgg"/>
        <phase duration="3"  state="rrrrryyyyrrrrryyyy"/>
    </tlLogic>
    <tlLogic id="cluster_2295204653_581198757" type="static" programID="0" offset="0">
        <phase duration="42" state="GGGgGGggrrr"/>
        <phase duration="3"  state="yyyyyyyyrrr"/>
        <phase duration="42" state="GrrrrrrrGGg"/>
        <phase duration="3"  state="yrrrrrrryyy"/>
    </tlLogic>
    <tlLogic id="cluster_580003473_580003588" type="static" programID="0" offset="0">
        <phase duration="42" state="rrrrGGGggrrrrGGGgg"/>
        <phase duration="3"  state="rrrryyyyyrrrryyyyy"/>
        <phase duration="42" state="GGggrrrrrGGggrrrrr"/>
        <phase duration="3"  state="yyyyrrrrryyyyrrrrr"/>
    </tlLogic>
    <tlLogic id="cluster_580003592_6193014140" type="static" programID="0" offset="0">
        <phase duration="42" state="GGggrrrGGGg"/>
        <phase duration="3"  state="yyyyrrryyyy"/>
        <phase duration="42" state="rrrrGGgGrrr"/>
        <phase duration="3"  state="rrrryyyyrrr"/>
    </tlLogic>
    <tlLogic id="joinedS_1360726046_1360726048_1360726049_257050250" type="static" programID="0" offset="0">
        <phase duration="9"  state="Grrrrrrrrrrrr"/>
        <phase duration="3"  state="yrrrrrrrrrrrr"/>
        <phase duration="10" state="rGGrrrrrrrrrr"/>
        <phase duration="3"  state="ryyrrrrrrrrrr"/>
        <phase duration="10" state="rrrGGGrrrGrrr"/>
        <phase duration="3"  state="rrryyyrrryrrr"/>
        <phase duration="10" state="rrrrrrGGrGrrr"/>
        <phase duration="3"  state="rrrrrryyryrrr"/>
        <phase duration="10" state="rrrrrrrrGrrrr"/>
        <phase duration="3"  state="rrrrrrrryrrrr"/>
        <phase duration="10" state="rrrrrrrrrrGGr"/>
        <phase duration="3"  state="rrrrrrrrrryyr"/>
        <phase duration="10" state="rrrrrrrrrrrrG"/>
        <phase duration="3"  state="rrrrrrrrrrrry"/>
    </tlLogic>
    <tlLogic id="joinedS_303068006_cluster_303067997_303068005_303068023_7407596729_#1more" type="static" programID="0" offset="0">
        <phase duration="20" state="GGrrrGGGrrrrrrrrrGrrr"/>
        <phase duration="5"  state="yyrrryyyrrrrrrrrryrrr"/>
        <phase duration="6"  state="rrrrrrrrrrrrrrrrrGGGG"/>
        <phase duration="5"  state="rrrrrrrrrrrrrrrrryyyy"/>
        <phase duration="22" state="GGrrrrrrrrrrGGGGGrrrr"/>
        <phase duration="5"  state="yyrrrrrrrrrryyyyyrrrr"/>
        <phase duration="22" state="GGGGgrrrGgGgGGrrrrrrr"/>
        <phase duration="5"  state="yyyyyrrryyyyyyrrrrrrr"/>
    </tlLogic>
    <tlLogic id="joinedS_343456973_cluster_733854267_7553751335" type="static" programID="0" offset="0">
        <phase duration="42" state="GGrrGGG"/>
        <phase duration="3"  state="yyrryyy"/>
        <phase duration="42" state="rrGGGGG"/>
        <phase duration="3"  state="rryyyyy"/>
    </tlLogic>
    <tlLogic id="joinedS_7553834037_cluster_1360726026_257050249_7118977215_7553840153" type="static" programID="0" offset="0">
        <phase duration="27" state="GGrrrrrrGGGG"/>
        <phase duration="3"  state="yyrrrrrryyyy"/>
        <phase duration="27" state="GGGGgGrrrrrr"/>
        <phase duration="3"  state="yyyyyyrrrrrr"/>
        <phase duration="27" state="GGrrrGGgGrrr"/>
        <phase duration="3"  state="yyrrryyyyrrr"/>
    </tlLogic>
    <tlLogic id="joinedS_7556268077_cluster_250953517_251069759_7556308823_7556310310" type="static" programID="0" offset="0">
        <phase duration="16" state="GGGGGGGGGrrrrrrrrrrrrr"/>
        <phase duration="5"  state="yyyyyyyyyrrrrrrrrrrrrr"/>
        <phase duration="18" state="GGGGGGrrrrrrGGGGgrrrrr"/>
        <phase duration="5"  state="yyyyyyrrrrrryyyyyrrrrr"/>
        <phase duration="18" state="GGGGrrrrrrrrrrrrrGGGGG"/>
        <phase duration="5"  state="yyyyrrrrrrrrrrrrryyyyy"/>
        <phase duration="18" state="GGGGrrrrgGGGrrrrrrrrrG"/>
        <phase duration="5"  state="yyyyrrrryyyyrrrrrrrrry"/>
    </tlLogic>

    <connection from="-1113566183" to="-560464849#1" fromLane="0" toLane="0" tl="joinedS_7556268077_cluster_250953517_251069759_7556308823_7556310310" linkIndex="3"/>
    <connection from="-1177324788#2" to="1177324789#0" fromLane="0" toLane="0" tl="cluster_1745201987_1745201992_1745202017_574287690_#2more" linkIndex="14"/>
    <connection from="-1177324788#2" to="-1186342706#1" fromLane="0" toLane="0" tl="cluster_1745201987_1745201992_1745202017_574287690_#2more" linkIndex="15"/>
    <connection from="-1177324788#2" to="1177324792#0" fromLane="0" toLane="1" tl="cluster_1745201987_1745201992_1745202017_574287690_#2more" linkIndex="16"/>
    <connection from="-1177324788#2" to="1177324788#1" fromLane="0" toLane="0" tl="cluster_1745201987_1745201992_1745202017_574287690_#2more" linkIndex="17"/>
    <connection from="-121576184#0" to="51420447#1" fromLane="0" toLane="0" tl="cluster_1360726039_656401115_7553823621" linkIndex="3"/>
    <connection from="-121576184#0" to="121576184#0" fromLane="0" toLane="0" tl="cluster_1360726039_656401115_7553823621" linkIndex="4"/>
    <connection from="-130753480#1" to="-130753480#0" fromLane="0" toLane="0" tl="1448810939" linkIndex="0"/>
    <connection from="-130753494#1" to="-130753494#0" fromLane="0" toLane="0" tl="1448810943" linkIndex="1"/>
    <connection from="-131582345#0" to="-131582355#1" fromLane="0" toLane="0" tl="1447908790" linkIndex="1"/>
    <connection from="-131590424#1" to="-131590424#0" fromLane="0" toLane="0" tl="1448810942" linkIndex="0"/>
    <connection from="-139460723#1" to="45513709#8" fromLane="0" toLane="0" tl="cluster_580003473_580003588" linkIndex="9"/>
    <connection from="-139460723#1" to="45579337#1" fromLane="0" toLane="0" tl="cluster_580003473_580003588" linkIndex="10"/>
    <connection from="-139460723#1" to="45513710#0" fromLane="0" toLane="1" tl="cluster_580003473_580003588" linkIndex="11"/>
    <connection from="-139460723#1" to="139460723#0" fromLane="0" toLane="0" tl="cluster_580003473_580003588" linkIndex="12"/>
    <connection from="-139904759#3" to="-139904759#2" fromLane="0" toLane="0" tl="1533172196" linkIndex="1"/>
    <connection from="-220393191#1" to="220393185#0" fromLane="0" toLane="0" tl="cluster_2295204636_475287986" linkIndex="14"/>
    <connection from="-220393191#1" to="-45513711#2" fromLane="0" toLane="0" tl="cluster_2295204636_475287986" linkIndex="15"/>
    <connection from="-220393191#1" to="722263987#0" fromLane="0" toLane="1" tl="cluster_2295204636_475287986" linkIndex="16"/>
    <connection from="-220393191#1" to="220393191#0" fromLane="0" toLane="0" tl="cluster_2295204636_475287986" linkIndex="17"/>
    <connection from="-30890427#2" to="30890428#0" fromLane="0" toLane="0" tl="GS_cluster_343434554_5724022122" linkIndex="4"/>
    <connection from="-30890427#2" to="-59089507#2" fromLane="0" toLane="0" tl="GS_cluster_343434554_5724022122" linkIndex="5"/>
    <connection from="-30890427#2" to="-59174050" fromLane="0" toLane="0" tl="GS_cluster_343434554_5724022122" linkIndex="6"/>
    <connection from="-30890427#2" to="30890427#0" fromLane="0" toLane="0" tl="GS_cluster_343434554_5724022122" linkIndex="7"/>
    <connection from="-30890428#2" to="-59089507#2" fromLane="0" toLane="0" tl="GS_cluster_343434554_5724022122" linkIndex="0"/>
    <connection from="-30890428#2" to="-59174050" fromLane="0" toLane="0" tl="GS_cluster_343434554_5724022122" linkIndex="1"/>
    <connection from="-30890428#2" to="30890427#0" fromLane="0" toLane="0" tl="GS_cluster_343434554_5724022122" linkIndex="2"/>
    <connection from="-30890428#2" to="30890428#0" fromLane="0" toLane="0" tl="GS_cluster_343434554_5724022122" linkIndex="3"/>
    <connection from="-45579337#2" to="45513710#0" fromLane="0" toLane="0" tl="cluster_580003473_580003588" linkIndex="0"/>
    <connection from="-45579337#2" to="139460723#0" fromLane="0" toLane="0" tl="cluster_580003473_580003588" linkIndex="1"/>
    <connection from="-45579337#2" to="45513709#8" fromLane="0" toLane="1" tl="cluster_580003473_580003588" linkIndex="2"/>
    <connection from="-45579337#2" to="45579337#1" fromLane="0" toLane="0" tl="cluster_580003473_580003588" linkIndex="3"/>
    <connection from="-45579340#1" to="722263992#0" fromLane="0" toLane="0" tl="cluster_2295204653_581198757" linkIndex="8"/>
    <connection from="-45579340#1" to="722263986#0" fromLane="0" toLane="1" tl="cluster_2295204653_581198757" linkIndex="9"/>
    <connection from="-45579340#1" to="45579340#0" fromLane="0" toLane="0" tl="cluster_2295204653_581198757" linkIndex="10"/>
    <connection from="-49070550#2" to="-49070550#0" fromLane="0" toLane="0" tl="cluster_4085449076_622588681" linkIndex="0"/>
    <connection from="-560464826#2" to="-560464826#0" fromLane="0" toLane="0" tl="cluster_4855570252_622068909" linkIndex="2"/>
    <connection from="-560464826#2" to="-560464826#0" fromLane="1" toLane="1" tl="cluster_4855570252_622068909" linkIndex="3"/>
    <connection from="-576712295#4" to="344092922#6" fromLane="0" toLane="0" tl="cluster_1027012951_1027013042_1027013111_1027013254_#16more" linkIndex="7"/>
    <connection from="-576712295#4" to="88410641#6" fromLane="0" toLane="0" tl="cluster_1027012951_1027013042_1027013111_1027013254_#16more" linkIndex="8"/>
    <connection from="-576712295#4" to="-664460333#2" fromLane="0" toLane="0" tl="cluster_1027012951_1027013042_1027013111_1027013254_#16more" linkIndex="9"/>
    <connection from="-576712295#4" to="576715207" fromLane="0" toLane="0" tl="cluster_1027012951_1027013042_1027013111_1027013254_#16more" linkIndex="10"/>
    <connection from="-576712295#4" to="88410574#4" fromLane="0" toLane="1" tl="cluster_1027012951_1027013042_1027013111_1027013254_#16more" linkIndex="11"/>
    <connection from="-576712295#4" to="88410572#5" fromLane="0" toLane="0" tl="cluster_1027012951_1027013042_1027013111_1027013254_#16more" linkIndex="12"/>
    <connection from="-576712295#4" to="576712295#4" fromLane="0" toLane="0" tl="cluster_1027012951_1027013042_1027013111_1027013254_#16more" linkIndex="13"/>
    <connection from="-790793785#2" to="790793795#0" fromLane="0" toLane="0" tl="cluster_11988024992_11988024993_7392838278_7392839199_#7more" linkIndex="18"/>
    <connection from="-790793785#2" to="790793792#0" fromLane="0" toLane="0" tl="cluster_11988024992_11988024993_7392838278_7392839199_#7more" linkIndex="19"/>
    <connection from="-790793785#2" to="790793793" fromLane="1" toLane="0" tl="cluster_11988024992_11988024993_7392838278_7392839199_#7more" linkIndex="20"/>
    <connection from="-790793785#2" to="790793785#0" fromLane="1" toLane="1" tl="cluster_11988024992_11988024993_7392838278_7392839199_#7more" linkIndex="21"/>
    <connection from="-790793792#2" to="790793793" fromLane="0" toLane="0" tl="cluster_11988024992_11988024993_7392838278_7392839199_#7more" linkIndex="5"/>
    <connection from="-790793792#2" to="790793785#0" fromLane="0" toLane="0" tl="cluster_11988024992_11988024993_7392838278_7392839199_#7more" linkIndex="6"/>
    <connection from="-790793792#2" to="790793795#0" fromLane="0" toLane="1" tl="cluster_11988024992_11988024993_7392838278_7392839199_#7more" linkIndex="7"/>
    <connection from="-790793792#2" to="790793792#0" fromLane="0" toLane="0" tl="cluster_11988024992_11988024993_7392838278_7392839199_#7more" linkIndex="8"/>
    <connection from="-814160715#1" to="-814160715#0" fromLane="0" toLane="0" tl="7605515717" linkIndex="0"/>
    <connection from="1113566177" to="792271494" fromLane="0" toLane="0" tl="joinedS_303068006_cluster_303067997_303068005_303068023_7407596729_#1more" linkIndex="12"/>
    <connection from="1113566177" to="792271494" fromLane="1" toLane="1" tl="joinedS_303068006_cluster_303067997_303068005_303068023_7407596729_#1more" linkIndex="13"/>
    <connection from="1113566177" to="-220393187#1" fromLane="1" toLane="1" tl="joinedS_303068006_cluster_303067997_303068005_303068023_7407596729_#1more" linkIndex="14"/>
    <connection from="1113566177" to="1154476435" fromLane="1" toLane="1" tl="joinedS_303068006_cluster_303067997_303068005_303068023_7407596729_#1more" linkIndex="15"/>
    <connection from="1113566177" to="1154476434#0" fromLane="1" toLane="0" tl="joinedS_303068006_cluster_303067997_303068005_303068023_7407596729_#1more" linkIndex="16"/>
    <connection from="1113566183" to="560464851#1" fromLane="0" toLane="0" tl="joinedS_7556268077_cluster_250953517_251069759_7556308823_7556310310" linkIndex="9"/>
    <connection from="1113566183" to="560464851#1" fromLane="1" toLane="1" tl="joinedS_7556268077_cluster_250953517_251069759_7556308823_7556310310" linkIndex="10"/>
    <connection from="1113566183" to="887311743#2" fromLane="1" toLane="0" tl="joinedS_7556268077_cluster_250953517_251069759_7556308823_7556310310" linkIndex="11"/>
    <connection from="1113566190#0" to="887311743#2" fromLane="0" toLane="0" tl="joinedS_7556268077_cluster_250953517_251069759_7556308823_7556310310" linkIndex="12"/>
    <connection from="1113566190#0" to="-1113566183" fromLane="0" toLane="0" tl="joinedS_7556268077_cluster_250953517_251069759_7556308823_7556310310" linkIndex="13"/>
    <connection from="1113566190#0" to="23734646" fromLane="0" toLane="0" tl="joinedS_7556268077_cluster_250953517_251069759_7556308823_7556310310" linkIndex="14"/>
    <connection from="1113566190#0" to="23734646" fromLane="1" toLane="1" tl="joinedS_7556268077_cluster_250953517_251069759_7556308823_7556310310" linkIndex="15"/>
    <connection from="1113566190#0" to="560464851#1" fromLane="1" toLane="1" tl="joinedS_7556268077_cluster_250953517_251069759_7556308823_7556310310" linkIndex="16"/>
    <connection from="1114967948#1" to="1114967948#3" fromLane="0" toLane="0" tl="7554411269" linkIndex="0"/>
    <connection from="1154386264#0" to="121576167#0" fromLane="0" toLane="0" tl="joinedS_1360726046_1360726048_1360726049_257050250" linkIndex="3"/>
    <connection from="1154386264#0" to="1154386264#2" fromLane="0" toLane="0" tl="joinedS_1360726046_1360726048_1360726049_257050250" linkIndex="4"/>
    <connection from="1154386264#0" to="1154386264#2" fromLane="1" toLane="1" tl="joinedS_1360726046_1360726048_1360726049_257050250" linkIndex="5"/>
    <connection from="1154386270#0" to="1154386287" fromLane="0" toLane="0" tl="joinedS_1360726046_1360726048_1360726049_257050250" linkIndex="1"/>
    <connection from="1154386270#0" to="1154386287" fromLane="1" toLane="1" tl="joinedS_1360726046_1360726048_1360726049_257050250" linkIndex="2"/>
    <connection from="1154386272#0" to="1154386272#2" fromLane="0" toLane="0" tl="joinedS_7553834037_cluster_1360726026_257050249_7118977215_7553840153" linkIndex="0"/>
    <connection from="1154386272#0" to="1154386272#2" fromLane="1" toLane="1" tl="joinedS_7553834037_cluster_1360726026_257050249_7118977215_7553840153" linkIndex="1"/>
    <connection from="1154476431#0" to="1154476431#2" fromLane="0" toLane="0" tl="10736796412" linkIndex="0"/>
    <connection from="1154476432#1" to="1154476432#2" fromLane="0" toLane="0" tl="10736796422" linkIndex="0"/>
    <connection from="1154476433#0" to="1154476433#1" fromLane="0" toLane="0" tl="7554344645" linkIndex="0"/>
    <connection from="1154476434#0" to="1114967948#0" fromLane="0" toLane="1" tl="joinedS_303068006_cluster_303067997_303068005_303068023_7407596729_#1more" linkIndex="1"/>
    <connection from="1177324785" to="1177324788#1" fromLane="0" toLane="0" tl="cluster_1745201987_1745201992_1745202017_574287690_#2more" linkIndex="0"/>
    <connection from="1177324785" to="1177324789#0" fromLane="0" toLane="0" tl="cluster_1745201987_1745201992_1745202017_574287690_#2more" linkIndex="1"/>
    <connection from="1177324785" to="1177324789#0" fromLane="1" toLane="1" tl="cluster_1745201987_1745201992_1745202017_574287690_#2more" linkIndex="2"/>
    <connection from="1177324785" to="-1186342706#1" fromLane="1" toLane="0" tl="cluster_1745201987_1745201992_1745202017_574287690_#2more" linkIndex="3"/>
    <connection from="1177324785" to="1177324792#0" fromLane="1" toLane="1" tl="cluster_1745201987_1745201992_1745202017_574287690_#2more" linkIndex="4"/>
    <connection from="1177324786#2" to="-47008267#0" fromLane="0" toLane="0" tl="cluster_1745202029_1745202040_1745202044_1745202050_#4more" linkIndex="9"/>
    <connection from="1177324786#2" to="684910711#1" fromLane="0" toLane="0" tl="cluster_1745202029_1745202040_1745202044_1745202050_#4more" linkIndex="10"/>
    <connection from="1177324786#2" to="684910711#1" fromLane="1" toLane="1" tl="cluster_1745202029_1745202040_1745202044_1745202050_#4more" linkIndex="11"/>
    <connection from="1177324786#2" to="-560406528#0" fromLane="1" toLane="0" tl="cluster_1745202029_1745202040_1745202044_1745202050_#4more" linkIndex="12"/>
    <connection from="1177324786#2" to="684910706#1" fromLane="1" toLane="1" tl="cluster_1745202029_1745202040_1745202044_1745202050_#4more" linkIndex="13"/>
    <connection from="1186342706#0" to="1177324792#0" fromLane="0" toLane="0" tl="cluster_1745201987_1745201992_1745202017_574287690_#2more" linkIndex="5"/>
    <connection from="1186342706#0" to="1177324788#1" fromLane="0" toLane="0" tl="cluster_1745201987_1745201992_1745202017_574287690_#2more" linkIndex="6"/>
    <connection from="1186342706#0" to="1177324789#0" fromLane="0" toLane="1" tl="cluster_1745201987_1745201992_1745202017_574287690_#2more" linkIndex="7"/>
    <connection from="1186342706#0" to="-1186342706#1" fromLane="0" toLane="0" tl="cluster_1745201987_1745201992_1745202017_574287690_#2more" linkIndex="8"/>
    <connection from="121576160#1" to="121576184#0" fromLane="0" toLane="0" tl="cluster_1360726039_656401115_7553823621" linkIndex="5"/>
    <connection from="121576160#1" to="51420447#1" fromLane="0" toLane="0" tl="cluster_1360726039_656401115_7553823621" linkIndex="6"/>
    <connection from="121576160#1" to="956323345#0" fromLane="0" toLane="0" tl="cluster_1360726039_656401115_7553823621" linkIndex="7"/>
    <connection from="121576160#1" to="956323345#0" fromLane="1" toLane="1" tl="cluster_1360726039_656401115_7553823621" linkIndex="8"/>
    <connection from="121576167#0" to="956323347" fromLane="0" toLane="0" tl="joinedS_1360726046_1360726048_1360726049_257050250" linkIndex="9"/>
    <connection from="121576168#0" to="1154386287" fromLane="0" toLane="0" tl="joinedS_1360726046_1360726048_1360726049_257050250" linkIndex="0"/>
    <connection from="121576173#0" to="956323347" fromLane="0" toLane="0" tl="joinedS_1360726046_1360726048_1360726049_257050250" linkIndex="8"/>
    <connection from="121576176#0" to="121576174" fromLane="0" toLane="0" tl="joinedS_7553834037_cluster_1360726026_257050249_7118977215_7553840153" linkIndex="2"/>
    <connection from="121576176#0" to="-59174014#4" fromLane="0" toLane="0" tl="joinedS_7553834037_cluster_1360726026_257050249_7118977215_7553840153" linkIndex="3"/>
    <connection from="121576176#0" to="956323346#1" fromLane="0" toLane="1" tl="joinedS_7553834037_cluster_1360726026_257050249_7118977215_7553840153" linkIndex="4"/>
    <connection from="121576179#0" to="121576184#0" fromLane="0" toLane="0" tl="cluster_1360726039_656401115_7553823621" linkIndex="0"/>
    <connection from="121576179#0" to="51420447#1" fromLane="0" toLane="0" tl="cluster_1360726039_656401115_7553823621" linkIndex="1"/>
    <connection from="121576179#0" to="956323345#0" fromLane="0" toLane="1" tl="cluster_1360726039_656401115_7553823621" linkIndex="2"/>
    <connection from="121576180#0" to="121576167#0" fromLane="0" toLane="0" tl="joinedS_1360726046_1360726048_1360726049_257050250" linkIndex="6"/>
    <connection from="121576180#0" to="1154386264#2" fromLane="0" toLane="1" tl="joinedS_1360726046_1360726048_1360726049_257050250" linkIndex="7"/>
    <connection from="121576183#0" to="1154386311" fromLane="0" toLane="1" tl="joinedS_1360726046_1360726048_1360726049_257050250" linkIndex="12"/>
    <connection from="130753480#0" to="130753480#1" fromLane="0" toLane="0" tl="1448810939" linkIndex="1"/>
    <connection from="130753494#0" to="130753494#1" fromLane="0" toLane="0" tl="1448810943" linkIndex="0"/>
    <connection from="130919050#0" to="130919050#1" fromLane="0" toLane="0" tl="1447908790" linkIndex="-1"/>
    <connection from="130919050#1" to="130919050#2" fromLane="0" toLane="0" tl="1448810942" linkIndex="-1"/>
    <connection from="130919050#3" to="130919050#4" fromLane="0" toLane="0" tl="1448810943" linkIndex="-1"/>
    <connection from="131582355#1" to="131582355#2" fromLane="0" toLane="0" tl="1447908790" linkIndex="0"/>
    <connection from="131590424#0" to="131590424#1" fromLane="0" toLane="0" tl="1448810942" linkIndex="1"/>
    <connection from="139904748#1" to="139904749#1" fromLane="0" toLane="0" tl="1533172196" linkIndex="-1"/>
    <connection from="139904759#2" to="139904759#3" fromLane="0" toLane="0" tl="1533172196" linkIndex="0"/>
    <connection from="162658099#0" to="-1186342706#1" fromLane="0" toLane="0" tl="cluster_1745201987_1745201992_1745202017_574287690_#2more" linkIndex="9"/>
    <connection from="162658099#0" to="1177324792#0" fromLane="0" toLane="0" tl="cluster_1745201987_1745201992_1745202017_574287690_#2more" linkIndex="10"/>
    <connection from="162658099#0" to="1177324792#0" fromLane="1" toLane="1" tl="cluster_1745201987_1745201992_1745202017_574287690_#2more" linkIndex="11"/>
    <connection from="162658099#0" to="1177324788#1" fromLane="1" toLane="0" tl="cluster_1745201987_1745201992_1745202017_574287690_#2more" linkIndex="12"/>
    <connection from="162658099#0" to="1177324789#0" fromLane="1" toLane="1" tl="cluster_1745201987_1745201992_1745202017_574287690_#2more" linkIndex="13"/>
    <connection from="170154541#3" to="170154541#4" fromLane="0" toLane="0" tl="1448810939" linkIndex="-1"/>
    <connection from="220393185#2" to="45579337#1" fromLane="0" toLane="0" tl="cluster_580003473_580003588" linkIndex="4"/>
    <connection from="220393185#2" to="45513710#0" fromLane="0" toLane="0" tl="cluster_580003473_580003588" linkIndex="5"/>
    <connection from="220393185#2" to="45513710#0" fromLane="1" toLane="1" tl="cluster_580003473_580003588" linkIndex="6"/>
    <connection from="220393185#2" to="139460723#0" fromLane="1" toLane="0" tl="cluster_580003473_580003588" linkIndex="7"/>
    <connection from="220393185#2" to="45513709#8" fromLane="1" toLane="1" tl="cluster_580003473_580003588" linkIndex="8"/>
    <connection from="220393187#1" to="1154476435" fromLane="0" toLane="0" tl="joinedS_303068006_cluster_303067997_303068005_303068023_7407596729_#1more" linkIndex="2"/>
    <connection from="220393187#1" to="1154476435" fromLane="1" toLane="1" tl="joinedS_303068006_cluster_303067997_303068005_303068023_7407596729_#1more" linkIndex="3"/>
    <connection from="220393187#1" to="-220393187#1" fromLane="1" toLane="1" tl="joinedS_303068006_cluster_303067997_303068005_303068023_7407596729_#1more" linkIndex="4"/>
    <connection from="23211037#0" to="-220393187#1" fromLane="0" toLane="0" tl="joinedS_303068006_cluster_303067997_303068005_303068023_7407596729_#1more" linkIndex="5"/>
    <connection from="23211037#0" to="-220393187#1" fromLane="1" toLane="1" tl="joinedS_303068006_cluster_303067997_303068005_303068023_7407596729_#1more" linkIndex="6"/>
    <connection from="23211037#0" to="1154476435" fromLane="1" toLane="0" tl="joinedS_303068006_cluster_303067997_303068005_303068023_7407596729_#1more" linkIndex="7"/>
    <connection from="23734642#2" to="59173984#0" fromLane="0" toLane="0" tl="joinedS_343456973_cluster_733854267_7553751335" linkIndex="4"/>
    <connection from="23734642#2" to="23734642#5" fromLane="0" toLane="0" tl="joinedS_343456973_cluster_733854267_7553751335" linkIndex="5"/>
    <connection from="23734642#2" to="23734642#5" fromLane="1" toLane="1" tl="joinedS_343456973_cluster_733854267_7553751335" linkIndex="6"/>