<?xml version="1.0" encoding="UTF-8"?>

<!-- generated on 2025-04-04 16:24:17 by Eclipse SUMO netconvert Version 1.19.0
<configuration xmlns:xsi="http://www.w3.org/2001/XMLSchema-instance" xsi:noNamespaceSchemaLocation="http://sumo.dlr.de/xsd/netconvertConfiguration.xsd">

    <input>
        <sumo-net-file value="gargenville/gargenville.net.xml"/>
    </input>

    <output>
        <plain-output-prefix value="gargenville/gargenville"/>
    </output>

    <processing>
        <geometry.min-radius.fix.railways value="false"/>
        <geometry.max-grade.fix value="false"/>
        <offset.disable-normalization value="true"/>
        <lefthand value="0"/>
    </processing>

    <tls_building>
        <tls.ignore-internal-junction-jam value="1"/>
    </tls_building>

    <junctions>
        <no-turnarounds value="true"/>
        <junctions.corner-detail value="5"/>
        <junctions.limit-turn-speed value="5.50"/>
        <rectangular-lane-cut value="0"/>
    </junctions>

    <pedestrian>
        <walkingareas value="0"/>
    </pedestrian>

</configuration>
-->

<edges version="1.16" xmlns:xsi="http://www.w3.org/2001/XMLSchema-instance" xsi:noNamespaceSchemaLocation="http://sumo.dlr.de/xsd/edges_file.xsd">
    <location netOffset="-408034.43,-5420250.66" convBoundary="0.00,0.00,12103.84,8944.13" origBoundary="1.743019,48.929417,2.002758,49.009799" projParameter="+proj=utm +zone=31 +ellps=WGS84 +datum=WGS84 +units=m +no_defs"/>

    <edge id="-1010239942" from="9321190808" to="9321190811" priority="3" type="highway.residential" numLanes="1" speed="13.89" shape="4845.85,5930.68 4848.44,5928.23 4849.71,5925.01 4852.19,5873.60 4850.62,5870.40 4848.06,5868.65" disallow="tram rail_urban rail rail_electric rail_fast ship"/>
    <edge id="-1012848295" from="1061513408" to="475283910" priority="1" type="highway.cycleway" numLanes="1" speed="5.56" shape="4938.97,5862.37 4933.40,5869.70 4933.94,5973.13 4939.61,5992.72" width="2.00" allow="bicycle"/>
    <edge id="-1012848296#0" from="7605578419" to="9344456917" priority="1" type="highway.service" numLanes="1" speed="5.56" shape="4819.40,5941.55 4797.60,5934.56 4684.17,5892.69" allow="pedestrian delivery bicycle"/>
    <edge id="-1012848296#1" from="cluster_4881473324_9344340113" to="7605578419" priority="1" type="highway.service" numLanes="1" speed="5.56" shape="4851.76,5946.95 4848.66,5948.63 4842.46,5947.94 4835.22,5945.93 4819.40,5941.55" allow="pedestrian delivery bicycle"/>
    <edge id="-1012848297" from="9344456922" to="1061513111" priority="1" type="highway.service" numLanes="1" speed="13.89" allow="pedestrian delivery bicycle"/>
    <edge id="-1013816282" from="9353504861" to="9353504864" priority="1" type="highway.path" numLanes="1" speed="5.56" shape="7329.04,7106.53 7333.29,7101.86 7339.47,7101.66 7373.68,7104.93" width="2.00" allow="pedestrian bicycle"/>
    <edge id="-1014618771" from="9360766884" to="1429688405" priority="1" type="highway.service" numLanes="1" speed="13.89" shape="4813.18,3797.85 4820.42,3787.63 4842.68,3788.60" allow="pedestrian delivery bicycle"/>
    <edge id="-1014618779" from="1429688277" to="1429688262" priority="1" type="highway.service" numLanes="1" speed="8.33" shape="4767.73,3737.97 4770.82,3731.76 4772.90,3729.22" allow="pedestrian bus delivery bicycle"/>
    <edge id="-1025005374#0" from="9451219522" to="9451219521" priority="1" type="highway.service" numLanes="1" speed="5.56" allow="pedestrian delivery bicycle"/>
    <edge id="-1025005374#1" from="9451219528" to="9451219522" priority="1" type="highway.service" numLanes="1" speed="5.56" shape="6427.32,2859.82 6409.39,2854.46 6403.35,2872.79" allow="pedestrian delivery bicycle"/>
    <edge id="-1025005374#2" from="9451219527" to="9451219528" priority="1" type="highway.service" numLanes="1" speed="5.56" shape="6420.90,2882.66 6436.92,2887.79 6444.60,2864.99 6427.32,2859.82" allow="pedestrian delivery bicycle"/>
    <edge id="-1025005374#3" from="9451219522" to="9451219527" priority="1" type="highway.service" numLanes="1" speed="5.56" shape="6403.35,2872.79 6404.96,2877.54 6420.90,2882.66" allow="pedestrian delivery bicycle"/>
    <edge id="-1025005375" from="9451219528" to="9451219527" priority="1" type="highway.service" numLanes="1" speed="5.56" allow="pedestrian delivery bicycle"/>
    <edge id="-1025005376" from="9451219530" to="8807432991" priority="1" type="highway.service" numLanes="1" speed="5.56" shape="5982.90,2690.61 5976.07,2688.36 5919.63,2662.80 5914.08,2660.30" allow="pedestrian delivery bicycle"/>
    <edge id="-1027205944" from="9470088954" to="9470088939" priority="1" type="highway.track" numLanes="1" speed="5.56" shape="6248.23,6476.11 6282.86,6494.57 6326.06,6508.38 6357.82,6519.24 6381.94,6529.83 6475.87,6562.83 6505.88,6574.30 6557.00,6592.89 6639.34,6625.48 6679.81,6640.71 6726.78,6657.41 6769.02,6672.81 6793.68,6681.62 6810.87,6689.19 6831.06,6700.04 6844.80,6709.50" allow="pedestrian motorcycle moped bicycle"/>
    <edge id="-1027205945#0" from="9470088963" to="9470088955" priority="1" type="highway.track" numLanes="1" speed="5.56" shape="6160.94,5874.73 6158.76,5868.20 6150.35,5862.63 6121.51,5845.63 6013.39,5778.87 5967.37,5750.22 5959.08,5740.50 5955.92,5726.91 5955.06,5714.62" allow="pedestrian motorcycle moped bicycle"/>
    <edge id="-1027205945#1" from="9470088981" to="9470088963" priority="1" type="highway.track" numLanes="1" speed="5.56" shape="5931.36,6221.74 5947.12,6210.09 5973.77,6185.66 5983.53,6178.08 5997.51,6163.19 6036.36,6109.89 6049.77,6092.06 6061.98,6075.12 6069.21,6060.49 6075.32,6040.88 6088.85,6008.36 6100.37,5980.72 6108.04,5971.96 6121.78,5964.31 6144.06,5948.25 6155.64,5935.29 6158.41,5924.01 6161.24,5893.90 6160.94,5874.73" allow="pedestrian motorcycle moped bicycle"/>
    <edge id="-1027205945#2" from="9470088996" to="9470088981" priority="1" type="highway.track" numLanes="1" speed="5.56" shape="5663.63,6197.04 5652.32,6204.64 5647.94,6212.66 5644.56,6229.12 5643.28,6247.11 5646.36,6256.39 5654.08,6262.14 5677.90,6267.48 5710.74,6273.18 5757.40,6277.47 5795.15,6275.50 5813.63,6272.28 5854.94,6254.36 5893.81,6235.80 5915.71,6229.23 5931.36,6221.74" allow="pedestrian motorcycle moped bicycle"/>
    <edge id="-1027205946" from="9470120044" to="9470088981" priority="1" type="highway.track" numLanes="1" speed="5.56" shape="6652.24,6366.32 6665.05,6403.81 6665.18,6412.23 6664.39,6419.34 6661.40,6426.71 6642.91,6468.00 6634.32,6488.09 6625.80,6498.19 6620.74,6501.16 6613.23,6504.38 6596.78,6505.08 6572.73,6502.34 6501.85,6491.24 6473.56,6487.90 6457.07,6485.93 6448.43,6488.07 6431.62,6493.86 6419.00,6497.38 6402.85,6502.07 6387.52,6502.97 6369.23,6499.71 6351.83,6495.98 6326.38,6489.28 6302.01,6480.57 6285.65,6472.18 6266.77,6459.16 6245.10,6438.43 6240.05,6428.09 6227.30,6408.78 6205.41,6373.64 6193.53,6353.20 6180.21,6326.13 6175.88,6318.66 6172.03,6314.07 6164.59,6307.53 6144.39,6295.88 6133.43,6291.16 6122.07,6290.23 6110.30,6291.08 6099.87,6292.57 6090.32,6293.39 6081.18,6292.19 6071.35,6288.80 6063.28,6284.71 5999.51,6258.87 5971.75,6246.88 5942.46,6236.47 5934.13,6229.95 5931.36,6221.74" allow="pedestrian motorcycle moped bicycle"/>
    <edge id="-1027205947" from="9470120052" to="574287630" priority="1" type="highway.track" numLanes="1" speed="5.56" shape="6649.17,6320.53 6660.84,6327.79 6676.53,6340.79 6694.73,6352.20 6721.67,6366.65 6747.78,6380.55 6774.51,6391.58 6793.22,6398.66 6814.92,6407.84" allow="pedestrian motorcycle moped bicycle"/>
    <edge id="-1027206546" from="9470068897" to="771272912" priority="1" type="highway.track" numLanes="1" speed="5.56" shape="6623.21,3841.77 6631.55,3848.51 6633.66,3855.58 6634.94,3866.20 6633.54,3876.65 6628.00,3892.71 6617.72,3918.59 6611.36,3938.88 6608.29,3956.45 6598.50,3969.68" allow="pedestrian motorcycle moped bicycle"/>
    <edge id="-1028738461" from="715635156" to="715635101" priority="3" type="highway.residential" numLanes="1" speed="8.33" shape="3831.27,3644.29 3797.84,3653.84 3780.54,3658.91" disallow="tram rail_urban rail rail_electric rail_fast ship"/>
    <edge id="-1035768264" from="9543022838" to="661081567" priority="1" type="highway.track" numLanes="1" speed="5.56" shape="6258.88,2190.66 6292.45,2137.38 6293.15,2133.36 6248.64,2108.33 6239.63,2103.50" allow="pedestrian motorcycle moped bicycle"/>
    <edge id="-1035768269#0" from="4906248380" to="4906248384" priority="1" type="highway.service" numLanes="1" speed="12.50" allow="pedestrian delivery bicycle"/>
    <edge id="-1035768271" from="661081552" to="661081546" priority="1" type="highway.track" numLanes="1" speed="5.56" shape="5859.18,2246.28 5871.26,2212.42 5897.73,2145.08 5915.61,2119.78 5964.04,2080.66 5980.83,2050.86 5985.44,2035.29" allow="pedestrian motorcycle moped bicycle"/>
    <edge id="-1035768272#0" from="661081364" to="661081371" priority="1" type="highway.track" numLanes="1" speed="5.56" shape="5789.37,1892.71 5708.75,1987.87 5697.26,1993.83" allow="pedestrian motorcycle moped bicycle"/>
    <edge id="-1035768272#1" from="661081500" to="661081364" priority="1" type="highway.track" numLanes="1" speed="5.56" shape="5896.44,1731.39 5863.50,1782.51 5824.02,1851.81 5789.37,1892.71" allow="pedestrian motorcycle moped bicycle"/>
    <edge id="-1035834385#0" from="8715220482" to="9543579026" priority="3" type="highway.residential" numLanes="1" speed="8.33" disallow="tram rail_urban rail rail_electric rail_fast ship"/>
    <edge id="-1035834385#1" from="661081477" to="8715220482" priority="3" type="highway.residential" numLanes="1" speed="8.33" disallow="tram rail_urban rail rail_electric rail_fast ship"/>
    <edge id="-1035834388" from="12492942657" to="9543579036" priority="1" type="highway.service" numLanes="1" speed="5.56" shape="6409.42,1818.70 6413.54,1821.68 6419.56,1825.59 6406.81,1842.22 6397.12,1834.89" allow="pedestrian delivery bicycle"/>
    <edge id="-1035834389" from="661081581" to="661081516" priority="1" type="highway.path" numLanes="1" speed="13.89" shape="6280.96,1769.12 6274.92,1769.95 6244.81,1769.00 6239.06,1769.19 6234.68,1771.50 6226.98,1782.01 6225.42,1782.87 6221.95,1783.70 6216.70,1785.07" width="2.00" allow="pedestrian bicycle"/>
    <edge id="-1039998121" from="9576018343" to="9576018337" priority="1" type="highway.service" numLanes="1" speed="5.56" shape="8313.46,3602.17 8329.79,3602.35 8338.51,3606.89 8340.12,3619.89 8338.19,3651.46 8336.23,3662.70 8333.40,3673.32" allow="pedestrian delivery bicycle"/>
    <edge id="-1039998127#1" from="1329987103" to="cluster_1329987122_5149236411" priority="1" type="highway.service" numLanes="1" speed="13.89" shape="8324.60,3800.12 8333.23,3802.32" allow="pedestrian delivery bicycle"/>
    <edge id="-1039998128#0" from="1329987044" to="1329987103" priority="1" type="highway.service" numLanes="1" speed="13.89" allow="pedestrian delivery bicycle"/>
    <edge id="-1039998128#1" from="1329986994" to="1329987044" priority="1" type="highway.service" numLanes="1" speed="13.89" allow="pedestrian delivery bicycle"/>
    <edge id="-1039998128#2" from="1329986861" to="1329986994" priority="1" type="highway.service" numLanes="1" speed="13.89" allow="pedestrian delivery bicycle"/>
    <edge id="-1039998128#3" from="5149236403" to="1329986861" priority="1" type="highway.service" numLanes="1" speed="13.89" allow="pedestrian delivery bicycle"/>
    <edge id="-104290264" from="1203324804" to="1203324634" priority="1" type="highway.track" numLanes="1" speed="5.56" shape="5514.77,4698.57 5422.29,4671.82 5414.58,4669.59 5301.67,4631.01 5222.61,4597.40 5076.32,4533.13 4908.21,4455.88 4892.08,4453.39" allow="pedestrian motorcycle moped bicycle"/>
    <edge id="-104290265#0" from="1203324711" to="1203324714" priority="3" type="highway.residential" numLanes="1" speed="8.33" disallow="tram rail_urban rail rail_electric rail_fast ship"/>
    <edge id="-104290265#1" from="cluster_10736015224_1203324610" to="1203324711" priority="3" type="highway.residential" numLanes="1" speed="8.33" shape="6601.10,4631.63 6598.21,4633.75 6588.88,4638.64 6557.52,4657.60" disallow="tram rail_urban rail rail_electric rail_fast ship"/>
    <edge id="-104290266#1" from="cluster_10736015235_10736015246" to="cluster_10736015252_10736015253" priority="3" type="highway.residential" numLanes="1" speed="8.33" shape="6323.16,4342.62 6327.61,4338.49 6330.65,4337.68 6349.58,4340.34 6459.79,4355.84 6610.02,4377.77 6620.67,4379.32 6685.68,4389.19 6708.09,4392.88 6711.80,4393.90" disallow="tram rail_urban rail rail_electric rail_fast ship"/>
    <edge id="-104290267#0" from="1211788299" to="8508256826" priority="3" type="highway.residential" numLanes="1" speed="8.33" shape="6431.07,4589.16 6382.43,4512.47 6328.38,4481.48 6319.20,4479.41" disallow="tram rail_urban rail rail_electric rail_fast ship"/>
    <edge id="-104290267#1" from="1218073770" to="1211788299" priority="3" type="highway.residential" numLanes="1" speed="8.33" shape="6465.33,4602.07 6435.55,4596.22 6431.07,4589.16" disallow="tram rail_urban rail rail_electric rail_fast ship"/>
    <edge id="-104290267#2" from="1218073951" to="1218073770" priority="3" type="highway.residential" numLanes="1" speed="8.33" disallow="tram rail_urban rail rail_electric rail_fast ship"/>
    <edge id="-104290267#3" from="1203324711" to="1218073951" priority="3" type="highway.residential" numLanes="1" speed="8.33" shape="6557.52,4657.60 6531.65,4615.10 6527.72,4614.33" disallow="tram rail_urban rail rail_electric rail_fast ship"/>
    <edge id="-104290269#0" from="1203324683" to="1203324748" priority="3" type="highway.residential" numLanes="1" speed="8.33" disallow="tram rail_urban rail rail_electric rail_fast ship"/>
    <edge id="-104290269#1" from="1218073765" to="1203324683" priority="3" type="highway.residential" numLanes="1" speed="8.33" disallow="tram rail_urban rail rail_electric rail_fast ship"/>
    <edge id="-104290269#2" from="1203324749" to="1218073765" priority="3" type="highway.residential" numLanes="1" speed="8.33" shape="6624.56,4961.36 6614.57,4950.15 6612.79,4936.09 6617.98,4916.43 6636.38,4912.62 6659.17,4837.50 6671.22,4828.15" disallow="tram rail_urban rail rail_electric rail_fast ship"/>
    <edge id="-104290269#3" from="1203324653" to="1203324749" priority="3" type="highway.residential" numLanes="1" speed="8.33" disallow="tram rail_urban rail rail_electric rail_fast ship"/>
    <edge id="-104290270#0" from="1203324731" to="2902851384" priority="3" type="highway.residential" numLanes="1" speed="13.89" shape="6494.49,4249.28 6487.30,4243.61 6461.72,4222.40 6451.40,4214.21 6446.89,4211.14 6443.48,4209.24 6439.66,4207.53 6436.11,4206.31 6432.14,4205.45 6427.46,4205.32 6421.08,4205.76 6416.19,4206.86 6410.29,4208.82 6339.00,4242.97 6308.19,4298.65 6306.45,4302.21 6305.49,4305.24 6305.15,4306.83 6303.55,4314.39" disallow="tram rail_urban rail rail_electric rail_fast ship"/>
    <edge id="-104290270#1" from="771272887" to="1203324731" priority="3" type="highway.residential" numLanes="1" speed="13.89" shape="6539.38,4265.19 6535.52,4264.45 6523.36,4260.50 6506.81,4254.80 6500.34,4252.31 6494.49,4249.28" disallow="tram rail_urban rail rail_electric rail_fast ship"/>
    <edge id="-104290271#0" from="1203324840" to="1203324793" priority="3" type="highway.residential" numLanes="1" speed="8.33" shape="6773.26,5087.48 6864.22,4898.95 6866.89,4894.01" disallow="tram rail_urban rail rail_electric rail_fast ship"/>
    <edge id="-104290271#1" from="1218283584" to="1203324840" priority="3" type="highway.residential" numLanes="1" speed="8.33" disallow="tram rail_urban rail rail_electric rail_fast ship"/>
    <edge id="-104290272" from="1203324838" to="1203324627" priority="3" type="highway.residential" numLanes="1" speed="8.33" shape="6903.98,5073.20 6867.77,5048.46 6907.70,4963.67 6918.62,4925.01 6920.14,4919.63" disallow="tram rail_urban rail rail_electric rail_fast ship"/>
    <edge id="-104290274#0" from="1203324538" to="1203324685" priority="3" type="highway.residential" numLanes="1" speed="8.33" shape="6833.66,4770.53 6856.37,4716.56 6859.67,4708.44 6861.03,4705.12" disallow="tram rail_urban rail rail_electric rail_fast ship"/>
    <edge id="-104290274#1" from="cluster_1203324741_1203324809" to="1203324538" priority="3" type="highway.residential" numLanes="1" speed="8.33" shape="6796.66,4859.89 6798.76,4854.56 6833.66,4770.53" disallow="tram rail_urban rail rail_electric rail_fast ship"/>
    <edge id="-104290276#0" from="732319361" to="cluster_10736015252_10736015253" priority="3" type="highway.residential" numLanes="1" speed="8.33" shape="6755.51,4476.27 6718.34,4408.19 6716.14,4403.37 6715.32,4401.04 6714.89,4398.30 6715.05,4396.14 6715.38,4394.90" disallow="tram rail_urban rail rail_electric rail_fast ship"/>
    <edge id="-104290276#1" from="1203324735" to="732319361" priority="3" type="highway.residential" numLanes="1" speed="8.33" shape="6812.44,4580.91 6772.19,4506.92 6755.51,4476.27" disallow="tram rail_urban rail rail_electric rail_fast ship"/>
    <edge id="-104290276#2" from="1203324602" to="1203324735" priority="3" type="highway.residential" numLanes="1" speed="8.33" shape="6858.80,4668.78 6857.05,4665.43 6855.30,4662.07 6812.44,4580.91" disallow="tram rail_urban rail rail_electric rail_fast ship"/>
    <edge id="-104290277" from="732318981" to="1203324604" priority="3" type="highway.residential" numLanes="1" speed="8.33" shape="7013.50,4716.13 6896.61,4692.06 6892.67,4691.26 6888.72,4690.44" disallow="tram rail_urban rail rail_electric rail_fast ship"/>
    <edge id="-104290279#0" from="1203324771" to="5404969318" priority="3" type="highway.residential" numLanes="1" speed="8.33" shape="6416.38,4409.56 6404.16,4400.85 6367.12,4374.44" disallow="tram rail_urban rail rail_electric rail_fast ship"/>
    <edge id="-104290279#1" from="1203324818" to="1203324771" priority="3" type="highway.residential" numLanes="1" speed="8.33" shape="6523.48,4524.10 6517.36,4515.04 6507.10,4499.89 6496.86,4486.91 6484.52,4473.13 6439.42,4431.05 6416.38,4409.56" disallow="tram rail_urban rail rail_electric rail_fast ship"/>
    <edge id="-104290279#10" from="1203324627" to="1203324793" priority="3" type="highway.residential" numLanes="1" speed="8.33" shape="6920.14,4919.63 6870.07,4895.54 6866.89,4894.01" disallow="tram rail_urban rail rail_electric rail_fast ship"/>
    <edge id="-104290279#11" from="1203324567" to="1203324627" priority="3" type="highway.residential" numLanes="1" speed="8.33" shape="6967.27,4942.20 6923.36,4921.17 6920.14,4919.63" disallow="tram rail_urban rail rail_electric rail_fast ship"/>
    <edge id="-104290279#12" from="8688509619" to="1203324567" priority="3" type="highway.residential" numLanes="1" speed="8.33" shape="7002.40,4958.79 6980.59,4948.49 6969.74,4943.37 6967.27,4942.20" disallow="tram rail_urban rail rail_electric rail_fast ship"/>
    <edge id="-104290279#13" from="732319191" to="8688509619" priority="3" type="highway.residential" numLanes="1" speed="8.33" disallow="tram rail_urban rail rail_electric rail_fast ship"/>
    <edge id="-104290279#2" from="cluster_10736015224_1203324610" to="1203324818" priority="3" type="highway.residential" numLanes="1" speed="8.33" shape="6601.10,4631.63 6595.20,4624.94 6587.21,4616.05 6579.52,4607.53 6568.19,4594.52 6559.06,4582.59 6523.48,4524.10" disallow="tram rail_urban rail rail_electric rail_fast ship"/>
    <edge id="-104290279#4" from="1203324595" to="cluster_10736015224_1203324610" priority="3" type="highway.residential" numLanes="1" speed="8.33" shape="6680.81,4740.48 6664.31,4712.32 6657.40,4701.46 6648.64,4688.56 6633.82,4669.71 6611.45,4644.42 6608.63,4641.24 6605.93,4637.85 6602.77,4633.53" disallow="tram rail_urban rail rail_electric rail_fast ship"/>
    <edge id="-104290279#5" from="cluster_11858246557_7556667159" to="1203324595" priority="3" type="highway.residential" numLanes="1" speed="8.33" shape="6738.81,4815.91 6734.69,4812.05 6721.66,4799.14 6697.15,4765.91 6682.60,4743.55 6680.81,4740.48" disallow="tram rail_urban rail rail_electric rail_fast ship"/>
    <edge id="-104290279#7" from="cluster_1203324741_1203324809" to="cluster_11858246557_7556667159" priority="3" type="highway.residential" numLanes="1" speed="8.33" shape="6796.66,4859.89 6783.12,4852.17 6744.10,4820.16" disallow="tram rail_urban rail rail_electric rail_fast ship"/>
    <edge id="-104290279#9" from="1203324793" to="cluster_1203324741_1203324809" priority="3" type="highway.residential" numLanes="1" speed="8.33" shape="6866.89,4894.01 6845.50,4883.80 6804.98,4864.53" disallow="tram rail_urban rail rail_electric rail_fast ship"/>
    <edge id="-104290280#0" from="1203324709" to="1203324585" priority="3" type="highway.residential" numLanes="1" speed="8.33" shape="6927.64,4791.51 6883.60,4710.24 6881.74,4706.81 6879.87,4703.39" disallow="tram rail_urban rail rail_electric rail_fast ship"/>
    <edge id="-104290282" from="732318939" to="1203324625" priority="3" type="highway.residential" numLanes="1" speed="8.33" shape="6904.53,4601.46 6880.79,4657.47 6878.50,4662.51 6876.21,4667.55" disallow="tram rail_urban rail rail_electric rail_fast ship"/>
    <edge id="-104290283#0" from="10736015236" to="1203324746" priority="4" type="highway.unclassified" numLanes="1" speed="13.89" shape="6282.89,4329.53 6281.48,4329.41 6278.15,4329.14 6270.96,4328.30 6224.16,4320.89" disallow="tram rail_urban rail rail_electric rail_fast ship"/>
    <edge id="-104290283#1" from="2902851375" to="10736015236" priority="4" type="highway.unclassified" numLanes="1" speed="13.89" shape="6291.57,4329.80 6288.10,4329.88 6284.17,4329.65 6282.89,4329.53" disallow="tram rail_urban rail rail_electric rail_fast ship"/>
    <edge id="-104290285#0" from="1203324538" to="1203324595" priority="3" type="highway.residential" numLanes="1" speed="8.33" shape="6833.66,4770.53 6687.92,4739.57 6683.70,4739.52 6680.81,4740.48" disallow="tram rail_urban rail rail_electric rail_fast ship"/>
    <edge id="-104290285#1" from="1203324709" to="1203324538" priority="3" type="highway.residential" numLanes="1" speed="8.33" disallow="tram rail_urban rail rail_electric rail_fast ship"/>
    <edge id="-104290285#2" from="732452425" to="1203324709" priority="3" type="highway.residential" numLanes="1" speed="8.33" disallow="tram rail_urban rail rail_electric rail_fast ship"/>
    <edge id="-104290286" from="1203324550" to="1203324749" priority="3" type="highway.residential" numLanes="1" speed="8.33" shape="6677.77,4948.79 6675.11,4955.10 6680.69,4960.10 6672.24,4972.37 6624.56,4961.36" disallow="tram rail_urban rail rail_electric rail_fast ship"/>
    <edge id="-104290289" from="cluster_10736015224_1203324610" to="1203324716" priority="3" type="highway.residential" numLanes="1" speed="8.33" shape="6602.77,4633.53 6605.72,4631.82 6608.45,4630.65 6610.90,4630.42 6613.12,4630.58 6622.86,4632.56 6842.04,4680.10 6845.56,4680.86 6849.07,4681.63" disallow="tram rail_urban rail rail_electric rail_fast ship"/>
    <edge id="-104290290" from="1203324651" to="1203324521" priority="3" type="highway.residential" numLanes="1" speed="8.33" shape="6602.73,5150.79 6585.58,5189.82 6578.49,5208.80" disallow="tram rail_urban rail rail_electric rail_fast ship"/>
    <edge id="-104290291#0" from="1203324735" to="1203324818" priority="3" type="highway.residential" numLanes="1" speed="8.33" shape="6812.44,4580.91 6537.65,4523.06 6530.46,4521.97 6527.86,4522.41 6525.55,4523.30 6523.48,4524.10" disallow="tram rail_urban rail rail_electric rail_fast ship"/>
    <edge id="-104290291#1" from="732318939" to="1203324735" priority="3" type="highway.residential" numLanes="1" speed="8.33" disallow="tram rail_urban rail rail_electric rail_fast ship"/>
    <edge id="-104290293#0" from="1203324838" to="1203324664" priority="3" type="highway.residential" numLanes="1" speed="8.33" disallow="tram rail_urban rail rail_electric rail_fast ship"/>
    <edge id="-104290293#1" from="1203324567" to="1203324838" priority="3" type="highway.residential" numLanes="1" speed="8.33" shape="6967.27,4942.20 6964.34,4949.02 6903.98,5073.20" disallow="tram rail_urban rail rail_electric rail_fast ship"/>
    <edge id="-104290294" from="1218073953" to="cluster_1203324741_1203324809" priority="3" type="highway.residential" numLanes="1" speed="8.33" shape="6729.63,5004.02 6802.68,4868.97 6804.98,4864.53" disallow="tram rail_urban rail rail_electric rail_fast ship"/>
    <edge id="-104290295#0" from="10588644298" to="1203324746" priority="4" type="highway.unclassified" numLanes="1" speed="13.89" shape="6004.44,4271.89 6008.96,4272.98 6119.20,4299.60 6224.16,4320.89" disallow="tram rail_urban rail rail_electric rail_fast ship"/>
    <edge id="-104290295#1" from="1203324770" to="10588644298" priority="4" type="highway.unclassified" numLanes="1" speed="13.89" disallow="tram rail_urban rail rail_electric rail_fast ship"/>
    <edge id="-104290296#0" from="1218073786" to="1203324711" priority="3" type="highway.residential" numLanes="1" speed="8.33" disallow="tram rail_urban rail rail_electric rail_fast ship"/>
    <edge id="-104290296#1" from="1203324767" to="1218073786" priority="3" type="highway.residential" numLanes="1" speed="8.33" disallow="tram rail_urban rail rail_electric rail_fast ship"/>
    <edge id="-104290296#2" from="cluster_1203324531_1203324820" to="1203324767" priority="3" type="highway.residential" numLanes="1" speed="8.33" shape="6574.98,4808.62 6581.49,4801.19 6627.53,4772.60" disallow="tram rail_urban rail rail_electric rail_fast ship"/>
    <edge id="-104290296#3" from="1203324653" to="cluster_1203324531_1203324820" priority="3" type="highway.residential" numLanes="1" speed="8.33" shape="6612.59,4999.91 6610.09,4998.44 6568.21,4973.97 6570.50,4842.50 6570.84,4819.76 6574.98,4808.62" disallow="tram rail_urban rail rail_electric rail_fast ship"/>
    <edge id="-104290297" from="10735976583" to="732319333" priority="3" type="highway.residential" numLanes="1" speed="13.89" shape="7183.99,4566.46 7180.91,4565.72 7174.80,4564.26 6939.98,4515.35" disallow="tram rail_urban rail rail_electric rail_fast ship"/>
    <edge id="-104290298#0" from="1211788199" to="1203324724" priority="3" type="highway.residential" numLanes="1" speed="13.89" shape="6411.99,4273.72 6322.03,4312.56 6314.34,4315.87 6308.57,4318.28" disallow="tram rail_urban rail rail_electric rail_fast ship"/>
    <edge id="-104290298#1" from="1203324821" to="1211788199" priority="3" type="highway.residential" numLanes="1" speed="13.89" shape="6463.33,4249.29 6457.73,4255.13 6451.80,4259.52 6440.59,4264.20 6411.99,4273.72" disallow="tram rail_urban rail rail_electric rail_fast ship"/>
    <edge id="-104290299" from="732319384" to="1203324668" priority="3" type="highway.residential" numLanes="1" speed="13.89" shape="6992.45,5193.65 7040.27,5185.56 7062.21,5156.65 7078.71,5156.79 7104.74,5165.01 7123.20,5190.96 7151.40,5205.01" disallow="tram rail_urban rail rail_electric rail_fast ship"/>
    <edge id="-105142723#0" from="1233022928" to="1203324746" priority="1" type="highway.service" numLanes="1" speed="5.56" allow="pedestrian delivery bicycle"/>
    <edge id="-105142723#1" from="1233022963" to="1233022928" priority="1" type="highway.service" numLanes="1" speed="5.56" allow="pedestrian delivery bicycle"/>
    <edge id="-105142723#2" from="1211788248" to="1233022963" priority="1" type="highway.service" numLanes="1" speed="5.56" allow="pedestrian delivery bicycle"/>
    <edge id="-105142723#3" from="1211788187" to="1211788248" priority="1" type="highway.service" numLanes="1" speed="5.56" shape="6283.08,4254.79 6278.18,4267.79 6271.51,4273.37 6262.61,4277.03 6246.86,4273.75" allow="pedestrian delivery bicycle"/>
    <edge id="-105142723#4" from="1211788248" to="1211788187" priority="1" type="highway.service" numLanes="1" speed="5.56" shape="6246.86,4273.75 6240.43,4264.61 6236.71,4252.76 6241.23,4240.17 6283.08,4254.79" allow="pedestrian delivery bicycle"/>
    <edge id="-105142724" from="1211788189" to="1203324699" priority="3" type="highway.residential" numLanes="1" speed="8.33" shape="6640.73,5071.46 6629.72,5066.19 6650.60,5020.47" disallow="tram rail_urban rail rail_electric rail_fast ship"/>
    <edge id="-105142727#0" from="1211788317" to="1211788299" priority="3" type="highway.residential" numLanes="1" speed="8.33" disallow="tram rail_urban rail rail_electric rail_fast ship"/>
    <edge id="-105142727#1" from="1211788246" to="1211788317" priority="3" type="highway.residential" numLanes="1" speed="8.33" disallow="tram rail_urban rail rail_electric rail_fast ship"/>
    <edge id="-105142727#2" from="1211788317" to="1211788246" priority="3" type="highway.residential" numLanes="1" speed="8.33" shape="6410.65,4601.56 6414.17,4608.09 6407.56,4612.70 6403.34,4605.92" disallow="tram rail_urban rail rail_electric rail_fast ship"/>
    <edge id="-105142729#0" from="1203324699" to="1203324653" priority="3" type="highway.residential" numLanes="1" speed="8.33" disallow="tram rail_urban rail rail_electric rail_fast ship"/>
    <edge id="-105142729#1" from="1203324762" to="1203324699" priority="3" type="highway.residential" numLanes="1" speed="8.33" disallow="tram rail_urban rail rail_electric rail_fast ship"/>
    <edge id="-105142732" from="1211788172" to="1211788199" priority="3" type="highway.residential" numLanes="1" speed="13.89" disallow="tram rail_urban rail rail_electric rail_fast ship"/>
    <edge id="-105142734#0" from="1203324748" to="1203324595" priority="3" type="highway.residential" numLanes="1" speed="8.33" shape="6648.95,4760.13 6673.04,4743.31 6676.11,4741.84 6680.81,4740.48" disallow="tram rail_urban rail rail_electric rail_fast ship"/>
    <edge id="-105142734#1" from="1218073930" to="1203324748" priority="3" type="highway.residential" numLanes="1" speed="8.33" disallow="tram rail_urban rail rail_electric rail_fast ship"/>
    <edge id="-105142734#2" from="1203324767" to="1218073930" priority="3" type="highway.residential" numLanes="1" speed="8.33" disallow="tram rail_urban rail rail_electric rail_fast ship"/>