<?xml version="1.0" encoding="UTF-8"?>

<!-- generated on 2025-04-09 04:04:00 by Eclipse SUMO netconvert Version 1.19.0
<configuration xmlns:xsi="http://www.w3.org/2001/XMLSchema-instance" xsi:noNamespaceSchemaLocation="http://sumo.dlr.de/xsd/netconvertConfiguration.xsd">

    <input>
        <sumo-net-file value="beynes/beynes.net.xml"/>
    </input>

    <output>
        <plain-output-prefix value="beynes/beynes"/>
    </output>

    <processing>
        <geometry.min-radius.fix.railways value="false"/>
        <geometry.max-grade.fix value="false"/>
        <offset.disable-normalization value="true"/>
        <lefthand value="0"/>
    </processing>

    <tls_building>
        <tls.ignore-internal-junction-jam value="1"/>
    </tls_building>

    <junctions>
        <no-turnarounds value="true"/>
        <junctions.corner-detail value="5"/>
        <junctions.limit-turn-speed value="5.50"/>
        <rectangular-lane-cut value="0"/>
    </junctions>

    <pedestrian>
        <walkingareas value="0"/>
    </pedestrian>

</configuration>
-->

<connections version="1.16" xmlns:xsi="http://www.w3.org/2001/XMLSchema-instance" xsi:noNamespaceSchemaLocation="http://sumo.dlr.de/xsd/connections_file.xsd">
    <connection from="-1020078541" to="41231721" fromLane="0" toLane="0"/>
    <connection from="-1020078541" to="1020078541" fromLane="0" toLane="0"/>

    <connection from="-1020078545" to="1020078544" fromLane="0" toLane="0"/>
    <connection from="-1020078545" to="57680129" fromLane="0" toLane="0"/>
    <connection from="-1020078545" to="1020078545" fromLane="0" toLane="0"/>

    <connection from="-1020078546#0" to="-1020078546#1" fromLane="0" toLane="0"/>
    <connection from="-1020078546#0" to="1020078546#2" fromLane="0" toLane="0"/>
    <connection from="-1020078546#0" to="1020078546#0" fromLane="0" toLane="0"/>

    <connection from="-1020078546#1" to="-1020078546#0" fromLane="0" toLane="0"/>

    <connection from="-1020078546#2" to="1020078546#0" fromLane="0" toLane="0"/>
    <connection from="-1020078546#2" to="-1020078546#1" fromLane="0" toLane="0"/>
    <connection from="-1020078546#2" to="1020078546#2" fromLane="0" toLane="0"/>

    <connection from="-1020078548" to="41231515#6" fromLane="0" toLane="0"/>
    <connection from="-1020078548" to="-41231515#5" fromLane="0" toLane="0"/>
    <connection from="-1020078548" to="1020078548" fromLane="0" toLane="0"/>

    <connection from="-1020092133" to="175186741#1" fromLane="0" toLane="0"/>
    <connection from="-1020092133" to="-175186741#0" fromLane="0" toLane="0"/>
    <connection from="-1020092133" to="1020092133" fromLane="0" toLane="0"/>

    <connection from="-1020092137#0" to="1020092137#0" fromLane="0" toLane="0"/>

    <connection from="-1020092137#1" to="-1020092137#0" fromLane="0" toLane="0"/>
    <connection from="-1020092137#1" to="1157449879" fromLane="0" toLane="0"/>
    <connection from="-1020092137#1" to="1020092137#1" fromLane="0" toLane="0"/>

    <connection from="-1020092138" to="-1020092137#1" fromLane="0" toLane="0"/>
    <connection from="-1020092138" to="-41273130" fromLane="0" toLane="0"/>
    <connection from="-1020092138" to="41273126" fromLane="0" toLane="0"/>
    <connection from="-1020092138" to="1020092138" fromLane="0" toLane="0"/>

    <connection from="-1020092139#0" to="-1020092142" fromLane="0" toLane="0"/>
    <connection from="-1020092139#0" to="1020092140" fromLane="0" toLane="0"/>
    <connection from="-1020092139#0" to="1020092139#0" fromLane="0" toLane="0"/>

    <connection from="-1020092139#1" to="-1020092139#0" fromLane="0" toLane="0"/>

    <connection from="-1020092140" to="1020092139#0" fromLane="0" toLane="0"/>
    <connection from="-1020092140" to="-1020092142" fromLane="0" toLane="0"/>
    <connection from="-1020092140" to="1020092140" fromLane="0" toLane="0"/>

    <connection from="-1020092141" to="-1020092143" fromLane="0" toLane="0"/>
    <connection from="-1020092141" to="1020092142" fromLane="0" toLane="0"/>
    <connection from="-1020092141" to="1020092141" fromLane="0" toLane="0"/>

    <connection from="-1020092142" to="1020092141" fromLane="0" toLane="0"/>
    <connection from="-1020092142" to="-1020092143" fromLane="0" toLane="0"/>
    <connection from="-1020092142" to="1020092142" fromLane="0" toLane="0"/>

    <connection from="-1020092143" to="41273131" fromLane="0" toLane="0"/>
    <connection from="-1020092143" to="1020092143" fromLane="0" toLane="0"/>

    <connection from="-1024348862#0" to="135254281" fromLane="0" toLane="0"/>
    <connection from="-1024348862#0" to="1024348862#0" fromLane="0" toLane="0"/>

    <connection from="-1024348862#1" to="-1024348862#0" fromLane="0" toLane="0"/>
    <connection from="-1024348862#1" to="174457603" fromLane="0" toLane="0"/>
    <connection from="-1024348862#1" to="1024348862#1" fromLane="0" toLane="0"/>

    <connection from="-1024348863" to="-39433807#0" fromLane="0" toLane="0"/>
    <connection from="-1024348863" to="39433807#1" fromLane="0" toLane="0"/>
    <connection from="-1024348863" to="1024348863" fromLane="0" toLane="0"/>

    <connection from="-1024971939#0" to="-561194549" fromLane="0" toLane="0"/>
    <connection from="-1024971939#0" to="-561194549" fromLane="1" toLane="1"/>

    <connection from="-1024971939#1" to="-1024971939#0" fromLane="0" toLane="0"/>
    <connection from="-1024971939#1" to="-1024971939#0" fromLane="1" toLane="1"/>
    <connection from="-1024971939#1" to="493449424#0" fromLane="1" toLane="0"/>
    <connection from="-1024971939#1" to="1024971939#1" fromLane="1" toLane="1"/>

    <connection from="-1025315534" to="-174897336" fromLane="0" toLane="0"/>

    <connection from="-1025315535#0" to="-1025315534" fromLane="0" toLane="0"/>
    <connection from="-1025315535#0" to="-55751146#1" fromLane="0" toLane="0"/>
    <connection from="-1025315535#0" to="1025315535#0" fromLane="0" toLane="0"/>

    <connection from="-1025315535#1" to="-915059541#0" fromLane="0" toLane="0"/>
    <connection from="-1025315535#1" to="-1025315535#0" fromLane="0" toLane="0"/>
    <connection from="-1025315535#1" to="915059541#1" fromLane="0" toLane="0"/>

    <connection from="-1025474680" to="-1025474681" fromLane="0" toLane="0"/>

    <connection from="-1025474681" to="-1025474682#1" fromLane="0" toLane="0"/>

    <connection from="-1025474682#0" to="-1025474683" fromLane="0" toLane="0"/>

    <connection from="-1025474682#1" to="503128403" fromLane="0" toLane="0"/>
    <connection from="-1025474682#1" to="-1025474682#0" fromLane="0" toLane="0"/>
    <connection from="-1025474682#1" to="1025474682#1" fromLane="0" toLane="0"/>

    <connection from="-1025474683" to="-106488548" fromLane="0" toLane="0"/>

    <connection from="-1025474684" to="503128404#1" fromLane="0" toLane="0"/>
    <connection from="-1025474684" to="1025474684" fromLane="0" toLane="0"/>

    <connection from="-1031396131" to="-57392400#2" fromLane="0" toLane="0"/>
    <connection from="-1031396131" to="57392400#3" fromLane="0" toLane="0"/>
    <connection from="-1031396131" to="1031396130" fromLane="0" toLane="0"/>

    <connection from="-1034110351#0" to="-23881168#1" fromLane="0" toLane="0"/>

    <connection from="-106488397" to="-154901400#0" fromLane="0" toLane="0"/>
    <connection from="-106488397" to="154901400#1" fromLane="0" toLane="0"/>
    <connection from="-106488397" to="106488397" fromLane="0" toLane="0"/>

    <connection from="-106488416" to="106488416" fromLane="0" toLane="0"/>

    <connection from="-106488422" to="-561141862" fromLane="0" toLane="0"/>
    <connection from="-106488422" to="-106488581" fromLane="0" toLane="0"/>
    <connection from="-106488422" to="106488422" fromLane="0" toLane="0"/>

    <connection from="-106488428" to="23030923#1" fromLane="0" toLane="0"/>
    <connection from="-106488428" to="-23030923#0" fromLane="0" toLane="0"/>
    <connection from="-106488428" to="106488697" fromLane="0" toLane="0"/>

    <connection from="-106488432#0" to="-23030922#0" fromLane="0" toLane="0"/>
    <connection from="-106488432#0" to="23030922#1" fromLane="0" toLane="0"/>
    <connection from="-106488432#0" to="106488432#0" fromLane="0" toLane="0"/>

    <connection from="-106488432#1" to="-106488432#0" fromLane="0" toLane="0"/>
    <connection from="-106488432#1" to="-160563305" fromLane="0" toLane="0"/>
    <connection from="-106488432#1" to="106488432#1" fromLane="0" toLane="0"/>

    <connection from="-106488432#2" to="-106488432#1" fromLane="0" toLane="0"/>
    <connection from="-106488432#2" to="1302129410" fromLane="0" toLane="0"/>
    <connection from="-106488432#2" to="106488432#2" fromLane="0" toLane="0"/>

    <connection from="-106488452#0" to="-23881172#0" fromLane="0" toLane="0"/>
    <connection from="-106488452#0" to="23881172#1" fromLane="0" toLane="0"/>
    <connection from="-106488452#0" to="106488452#0" fromLane="0" toLane="0"/>

    <connection from="-106488452#1" to="849001590#1" fromLane="0" toLane="0"/>
    <connection from="-106488452#1" to="-106488452#0" fromLane="0" toLane="0"/>
    <connection from="-106488452#1" to="-849001590#0" fromLane="0" toLane="0"/>
    <connection from="-106488452#1" to="106488452#1" fromLane="0" toLane="0"/>

    <connection from="-106488452#2" to="336147065" fromLane="0" toLane="0"/>
    <connection from="-106488452#2" to="-106488452#1" fromLane="0" toLane="0"/>
    <connection from="-106488452#2" to="106488452#2" fromLane="0" toLane="0"/>

    <connection from="-106488452#3" to="40322879#1" fromLane="0" toLane="0"/>
    <connection from="-106488452#3" to="-106488452#2" fromLane="0" toLane="0"/>
    <connection from="-106488452#3" to="-40322879#0" fromLane="0" toLane="0"/>
    <connection from="-106488452#3" to="106488452#3" fromLane="0" toLane="0"/>

    <connection from="-106488455#0" to="-1024348862#1" fromLane="0" toLane="0" keepClear="0"/>

    <connection from="-106488455#1" to="-106488455#0" fromLane="0" toLane="0"/>

    <connection from="-106488455#2" to="-106488455#1" fromLane="0" toLane="0"/>

    <connection from="-106488455#3" to="106488542" fromLane="0" toLane="0"/>
    <connection from="-106488455#3" to="-106488455#2" fromLane="0" toLane="0"/>
    <connection from="-106488455#3" to="106488455#3" fromLane="0" toLane="0"/>

    <connection from="-106488542" to="-106488455#2" fromLane="0" toLane="0"/>
    <connection from="-106488542" to="106488455#3" fromLane="0" toLane="0"/>
    <connection from="-106488542" to="106488542" fromLane="0" toLane="0"/>

    <connection from="-106488545" to="22561649#1" fromLane="0" toLane="0"/>
    <connection from="-106488545" to="-22561649#0" fromLane="0" toLane="1"/>
    <connection from="-106488545" to="106488545" fromLane="0" toLane="0"/>

    <connection from="-106488547#0" to="95416555#1" fromLane="0" toLane="0"/>
    <connection from="-106488547#0" to="-95416555#0" fromLane="0" toLane="0"/>
    <connection from="-106488547#0" to="106488598" fromLane="0" toLane="0"/>

    <connection from="-106488548" to="-503128403" fromLane="0" toLane="0"/>
    <connection from="-106488548" to="-1025474684" fromLane="0" toLane="0"/>
    <connection from="-106488548" to="106488548" fromLane="0" toLane="0"/>

    <connection from="-106488581" to="-174457588" fromLane="0" toLane="0" keepClear="0"/>
    <connection from="-106488581" to="106488581" fromLane="0" toLane="0"/>

    <connection from="-106488588#0" to="-904395706#0" fromLane="0" toLane="0"/>
    <connection from="-106488588#0" to="904395706#1" fromLane="0" toLane="0"/>
    <connection from="-106488588#0" to="106488588#0" fromLane="0" toLane="0"/>

    <connection from="-106488588#1" to="-493451571" fromLane="0" toLane="0"/>
    <connection from="-106488588#1" to="-106488588#0" fromLane="0" toLane="0"/>
    <connection from="-106488588#1" to="106488588#1" fromLane="0" toLane="0"/>

    <connection from="-106488712" to="213840488#0" fromLane="0" toLane="0"/>
    <connection from="-106488712" to="-43936289" fromLane="0" toLane="0"/>
    <connection from="-106488712" to="106488712" fromLane="0" toLane="0"/>

    <connection from="-1076634450" to="41273140#0" fromLane="0" toLane="0"/>
    <connection from="-1076634450" to="1076634450" fromLane="0" toLane="0"/>

    <connection from="-108053052#0" to="-108053052#2" fromLane="0" toLane="0"/>
    <connection from="-108053052#0" to="336147064" fromLane="0" toLane="0"/>
    <connection from="-108053052#0" to="561141863#0" fromLane="0" toLane="0"/>
    <connection from="-108053052#0" to="108053052#0" fromLane="0" toLane="0"/>

    <connection from="-108053052#1" to="-108053052#0" fromLane="0" toLane="0"/>
    <connection from="-108053052#1" to="617658636" fromLane="0" toLane="0"/>
    <connection from="-108053052#1" to="108053052#1" fromLane="0" toLane="0"/>

    <connection from="-108053052#2" to="-108053052#1" fromLane="0" toLane="0"/>
    <connection from="-108053052#2" to="95416535" fromLane="0" toLane="0"/>
    <connection from="-108053052#2" to="108053052#2" fromLane="0" toLane="0"/>

    <connection from="-1088188245" to="1088188246" fromLane="0" toLane="0"/>
    <connection from="-1088188245" to="-935520330#1" fromLane="0" toLane="0"/>
    <connection from="-1088188245" to="1088188245" fromLane="0" toLane="0"/>

    <connection from="-1088188246" to="-935520330#1" fromLane="0" toLane="0"/>
    <connection from="-1088188246" to="1088188245" fromLane="0" toLane="0"/>
    <connection from="-1088188246" to="1088188246" fromLane="0" toLane="0"/>

    <connection from="-1116499321#1" to="57680095#0" fromLane="0" toLane="0"/>
    <connection from="-1116499321#1" to="-1116499322" fromLane="0" toLane="0"/>
    <connection from="-1116499321#1" to="-1116499322" fromLane="1" toLane="1"/>
    <connection from="-1116499321#1" to="1116499321#0" fromLane="1" toLane="1"/>

    <connection from="-1116499322" to="57680111" fromLane="0" toLane="0"/>
    <connection from="-1116499322" to="-1264978470#1" fromLane="0" toLane="0"/>
    <connection from="-1116499322" to="-1264978470#1" fromLane="1" toLane="1"/>
    <connection from="-1116499322" to="1116499322" fromLane="1" toLane="1"/>

    <connection from="-1116499323#0" to="-561133121" fromLane="0" toLane="0"/>
    <connection from="-1116499323#0" to="-561133121" fromLane="1" toLane="1"/>

    <connection from="-1116499323#1" to="-1116499323#0" fromLane="0" toLane="0"/>
    <connection from="-1116499323#1" to="-1116499323#0" fromLane="1" toLane="1"/>
    <connection from="-1116499323#1" to="57099639" fromLane="1" toLane="0"/>
    <connection from="-1116499323#1" to="1116499323#1" fromLane="1" toLane="1"/>

    <connection from="-1116499324#0" to="-57680112#1" fromLane="0" toLane="0"/>
    <connection from="-1116499324#0" to="57680087#0" fromLane="0" toLane="0"/>
    <connection from="-1116499324#0" to="1116499324#0" fromLane="0" toLane="0"/>

    <connection from="-1116499324#1" to="-1116499324#0" fromLane="0" toLane="0"/>

    <connection from="-1116499324#2" to="-1116499324#1" fromLane="0" toLane="0"/>

    <connection from="-1116499328#0" to="-57680087#2" fromLane="0" toLane="0"/>
    <connection from="-1116499328#0" to="57680119#0" fromLane="0" toLane="0"/>

    <connection from="-1116499328#1" to="-1116499328#0" fromLane="0" toLane="0"/>

    <connection from="-1116499329" to="-1116499328#1" fromLane="0" toLane="0"/>
    <connection from="-1116499329" to="-57680119#1" fromLane="0" toLane="0"/>

    <connection from="-1116499330#0" to="1116499332#0" fromLane="0" toLane="0"/>
    <connection from="-1116499330#0" to="-1116499329" fromLane="0" toLane="0"/>
    <connection from="-1116499330#0" to="1116499330#0" fromLane="0" toLane="0"/>

    <connection from="-1116499331#0" to="1116499333" fromLane="0" toLane="0"/>
    <connection from="-1116499331#0" to="-1116499332#2" fromLane="0" toLane="0"/>

    <connection from="-1116499332#0" to="-1116499329" fromLane="0" toLane="0"/>
    <connection from="-1116499332#0" to="1116499330#0" fromLane="0" toLane="0"/>
    <connection from="-1116499332#0" to="1116499332#0" fromLane="0" toLane="0"/>

    <connection from="-1116499332#1" to="-1116499332#0" fromLane="0" toLane="0"/>

    <connection from="-1116499332#2" to="-1116499332#1" fromLane="0" toLane="0"/>

    <connection from="-1116499333" to="-1116499332#2" fromLane="0" toLane="0"/>
    <connection from="-1116499333" to="1116499331#0" fromLane="0" toLane="0"/>
    <connection from="-1116499333" to="1116499333" fromLane="0" toLane="0"/>

    <connection from="-1123308754" to="-561129863" fromLane="0" toLane="0"/>
    <connection from="-1123308754" to="-57680092#3" fromLane="0" toLane="0"/>
    <connection from="-1123308754" to="1123308754" fromLane="0" toLane="0"/>

    <connection from="-1157449877" to="-41231753#2" fromLane="0" toLane="0"/>
    <connection from="-1157449877" to="79119286#0" fromLane="0" toLane="0"/>
    <connection from="-1157449877" to="1157449877" fromLane="0" toLane="0"/>

    <connection from="-1157449878#0" to="41231757" fromLane="0" toLane="0"/>
    <connection from="-1157449878#0" to="1020078539" fromLane="0" toLane="0"/>
    <connection from="-1157449878#0" to="1157449878#0" fromLane="0" toLane="0"/>

    <connection from="-1157449878#1" to="-1157449878#0" fromLane="0" toLane="0"/>
    <connection from="-1157449878#1" to="1157449878#1" fromLane="0" toLane="0"/>

    <connection from="-1157449879" to="1020092137#1" fromLane="0" toLane="0"/>
    <connection from="-1157449879" to="-1020092137#0" fromLane="0" toLane="0"/>
    <connection from="-1157449879" to="1157449879" fromLane="0" toLane="0"/>

    <connection from="-1163710302" to="57392486" fromLane="0" toLane="0"/>
    <connection from="-1163710302" to="1004094803#0" fromLane="0" toLane="0"/>
    <connection from="-1163710302" to="1163710302" fromLane="0" toLane="0"/>

    <connection from="-1163827397" to="1163827397" fromLane="0" toLane="0"/>

    <connection from="-116495427#0" to="-503128405" fromLane="0" toLane="0"/>

    <connection from="-116495427#1" to="-116495427#0" fromLane="0" toLane="0"/>

    <connection from="-1176535826#0" to="447888544#0" fromLane="0" toLane="0"/>
    <connection from="-1176535826#0" to="399588377" fromLane="0" toLane="0"/>
    <connection from="-1176535826#0" to="1176535826#0" fromLane="0" toLane="0"/>

    <connection from="-1176535826#1" to="1176535827#0" fromLane="0" toLane="0"/>
    <connection from="-1176535826#1" to="-1176535826#0" fromLane="0" toLane="0"/>
    <connection from="-1176535826#1" to="1176535826#1" fromLane="0" toLane="0"/>

    <connection from="-1176535827#0" to="-1176535826#0" fromLane="0" toLane="0"/>
    <connection from="-1176535827#0" to="1176535826#1" fromLane="0" toLane="0"/>
    <connection from="-1176535827#0" to="1176535827#0" fromLane="0" toLane="0"/>

    <connection from="-1176535827#1" to="-1176535827#0" fromLane="0" toLane="0"/>
    <connection from="-1176535827#1" to="1176535829#0" fromLane="0" toLane="0"/>
    <connection from="-1176535827#1" to="-1176535828" fromLane="0" toLane="0"/>
    <connection from="-1176535827#1" to="1176535827#1" fromLane="0" toLane="0"/>

    <connection from="-1176535827#2" to="-1176535827#1" fromLane="0" toLane="0"/>
    <connection from="-1176535827#2" to="1176535828" fromLane="0" toLane="0"/>
    <connection from="-1176535827#2" to="1176535827#2" fromLane="0" toLane="0"/>

    <connection from="-1176535828" to="1176535827#2" fromLane="0" toLane="0"/>
    <connection from="-1176535828" to="-1176535827#1" fromLane="0" toLane="0"/>
    <connection from="-1176535828" to="1176535828" fromLane="0" toLane="0"/>

    <connection from="-1176535829#0" to="-1176535828" fromLane="0" toLane="0"/>
    <connection from="-1176535829#0" to="1176535827#1" fromLane="0" toLane="0"/>
    <connection from="-1176535829#0" to="-1176535827#0" fromLane="0" toLane="0"/>
    <connection from="-1176535829#0" to="1176535829#0" fromLane="0" toLane="0"/>

    <connection from="-1176535830#0" to="1176535829#1" fromLane="0" toLane="0"/>
    <connection from="-1176535830#0" to="-1176535829#0" fromLane="0" toLane="0"/>
    <connection from="-1176535830#0" to="1176535830#0" fromLane="0" toLane="0"/>

    <connection from="-1176535831" to="-1176535830#0" fromLane="0" toLane="0"/>
    <connection from="-1176535831" to="1176535832" fromLane="0" toLane="0"/>
    <connection from="-1176535831" to="1176535830#1" fromLane="0" toLane="0"/>
    <connection from="-1176535831" to="1176535831" fromLane="0" toLane="0"/>

    <connection from="-1176535832" to="1176535830#1" fromLane="0" toLane="0"/>
    <connection from="-1176535832" to="1176535831" fromLane="0" toLane="0"/>
    <connection from="-1176535832" to="-1176535830#0" fromLane="0" toLane="0"/>
    <connection from="-1176535832" to="1176535832" fromLane="0" toLane="0"/>

    <connection from="-1176535837#0" to="402588952" fromLane="0" toLane="0"/>
    <connection from="-1176535837#0" to="-399588371#3" fromLane="0" toLane="0"/>
    <connection from="-1176535837#0" to="1176535837#0" fromLane="0" toLane="0"/>

    <connection from="-1176535837#1" to="1176535866" fromLane="0" toLane="0"/>
    <connection from="-1176535837#1" to="-1176535837#0" fromLane="0" toLane="0"/>
    <connection from="-1176535837#1" to="1176535837#1" fromLane="0" toLane="0"/>

    <connection from="-1176535837#2" to="1176562080" fromLane="0" toLane="0"/>
    <connection from="-1176535837#2" to="-1176535837#1" fromLane="0" toLane="0"/>
    <connection from="-1176535837#2" to="1176535837#2" fromLane="0" toLane="0"/>

    <connection from="-1176535842" to="402588956#1" fromLane="0" toLane="0"/>
    <connection from="-1176535842" to="-402588956#0" fromLane="0" toLane="0"/>
    <connection from="-1176535842" to="1176535842" fromLane="0" toLane="0"/>

    <connection from="-1176535843#0" to="-1176535837#0" fromLane="0" toLane="0"/>
    <connection from="-1176535843#0" to="1176535837#1" fromLane="0" toLane="0"/>
    <connection from="-1176535843#0" to="1176535866" fromLane="0" toLane="0"/>

    <connection from="-1176535843#1" to="399588366#5" fromLane="0" toLane="0"/>
    <connection from="-1176535843#1" to="-1176535843#0" fromLane="0" toLane="0"/>
    <connection from="-1176535843#1" to="-399588366#4" fromLane="0" toLane="0"/>
    <connection from="-1176535843#1" to="1176535843#1" fromLane="0" toLane="0"/>

    <connection from="-1176535843#2" to="-1176535844" fromLane="0" toLane="0"/>
    <connection from="-1176535843#2" to="-1176535843#1" fromLane="0" toLane="0"/>
    <connection from="-1176535843#2" to="1176535843#2" fromLane="0" toLane="0"/>

    <connection from="-1176535844" to="399588366#6" fromLane="0" toLane="0"/>
    <connection from="-1176535844" to="-399588366#5" fromLane="0" toLane="0"/>
    <connection from="-1176535844" to="1176535844" fromLane="0" toLane="0"/>

    <connection from="-1176535845" to="-399588371#2" fromLane="0" toLane="0"/>
    <connection from="-1176535845" to="399588371#3" fromLane="0" toLane="0"/>
    <connection from="-1176535845" to="1176535845" fromLane="0" toLane="0"/>

    <connection from="-1176535846" to="1176535831" fromLane="0" toLane="0"/>
    <connection from="-1176535846" to="-1176535830#0" fromLane="0" toLane="0"/>
    <connection from="-1176535846" to="1176535832" fromLane="0" toLane="0"/>
    <connection from="-1176535846" to="1176535830#1" fromLane="0" toLane="0"/>

    <connection from="-1176562079#0" to="-399588379#0" fromLane="0" toLane="0"/>
    <connection from="-1176562079#0" to="399588379#1" fromLane="0" toLane="0"/>
    <connection from="-1176562079#0" to="1176562079#0" fromLane="0" toLane="0"/>

    <connection from="-1176562080" to="-1176535837#1" fromLane="0" toLane="0"/>
    <connection from="-1176562080" to="1176535837#2" fromLane="0" toLane="0"/>
    <connection from="-1176562080" to="1176562080" fromLane="0" toLane="0"/>

    <connection from="-1176562081" to="1176562082" fromLane="0" toLane="0"/>
    <connection from="-1176562081" to="-1176562083" fromLane="0" toLane="0"/>
    <connection from="-1176562081" to="1176562081" fromLane="0" toLane="0"/>

    <connection from="-1176562082" to="-1176562083" fromLane="0" toLane="0"/>
    <connection from="-1176562082" to="1176562081" fromLane="0" toLane="0"/>
    <connection from="-1176562082" to="1176562082" fromLane="0" toLane="0"/>

    <connection from="-1176562083" to="-1176562080" fromLane="0" toLane="0"/>
    <connection from="-1176562083" to="-1176562079#0" fromLane="0" toLane="0"/>
    <connection from="-1176562083" to="1176562079#1" fromLane="0" toLane="0"/>

    <connection from="-1176606255" to="55682342#2" fromLane="0" toLane="0"/>
    <connection from="-1176606255" to="-55682342#1" fromLane="0" toLane="1"/>
    <connection from="-1176606255" to="1176606255" fromLane="0" toLane="0"/>

    <connection from="-118134140#0" to="-205629918#0" fromLane="0" toLane="0"/>
    <connection from="-118134140#0" to="205629918#1" fromLane="0" toLane="0"/>
    <connection from="-118134140#0" to="118134140#0" fromLane="0" toLane="0"/>

    <connection from="-118134140#1" to="-57392547" fromLane="0" toLane="0"/>
    <connection from="-118134140#1" to="-118134140#0" fromLane="0" toLane="0"/>
    <connection from="-118134140#1" to="118134140#1" fromLane="0" toLane="0"/>

    <connection from="-118134140#2" to="57392425#1" fromLane="0" toLane="0"/>
    <connection from="-118134140#2" to="-118134140#1" fromLane="0" toLane="0"/>
    <connection from="-118134140#2" to="-57392425#0" fromLane="0" toLane="0"/>
    <connection from="-118134140#2" to="118134140#2" fromLane="0" toLane="0"/>

    <connection from="-118134140#3" to="-840067905#2" fromLane="0" toLane="0"/>
    <connection from="-118134140#3" to="-118134140#2" fromLane="0" toLane="0"/>
    <connection from="-118134140#3" to="118134140#3" fromLane="0" toLane="0"/>

    <connection from="-118134141" to="-57392389#2" fromLane="0" toLane="0"/>
    <connection from="-118134141" to="57392478#0" fromLane="0" toLane="0"/>
    <connection from="-118134141" to="118134141" fromLane="0" toLane="0"/>

    <connection from="-118134142" to="57392510#1" fromLane="0" toLane="0"/>
    <connection from="-118134142" to="57392524#1" fromLane="0" toLane="0"/>
    <connection from="-118134142" to="-57392510#0" fromLane="0" toLane="0"/>
    <connection from="-118134142" to="-57392524#0" fromLane="0" toLane="0"/>
    <connection from="-118134142" to="118134142" fromLane="0" toLane="0"/>

    <connection from="-1184840133" to="-399338445#1" fromLane="0" toLane="0"/>
    <connection from="-1184840133" to="399338445#2" fromLane="0" toLane="0"/>
    <connection from="-1184840133" to="1184840133" fromLane="0" toLane="0"/>

    <connection from="-1187862543#0" to="-178131664#0" fromLane="0" toLane="0"/>
    <connection from="-1187862543#0" to="178131664#1" fromLane="0" toLane="0"/>
    <connection from="-1187862543#0" to="1187862543#0" fromLane="0" toLane="0"/>

    <connection from="-1187862543#1" to="-1187862543#2" fromLane="0" toLane="0"/>
    <connection from="-1187862543#1" to="-1187862543#0" fromLane="0" toLane="0"/>
    <connection from="-1187862543#1" to="1187862543#1" fromLane="0" toLane="0"/>

    <connection from="-1187862543#2" to="-1187862543#1" fromLane="0" toLane="0"/>

    <connection from="-1189845996" to="125835961" fromLane="0" toLane="0"/>
    <connection from="-1189845996" to="-125835958" fromLane="0" toLane="0"/>
    <connection from="-1189845996" to="1189845996" fromLane="0" toLane="0"/>

    <connection from="-1201006889#0" to="-116495427#1" fromLane="0" toLane="0"/>
    <connection from="-1201006889#0" to="-174897335" fromLane="0" toLane="0"/>
    <connection from="-1201006889#0" to="-40322879#1" fromLane="0" toLane="0"/>
    <connection from="-1201006889#0" to="1201006889#0" fromLane="0" toLane="0"/>

    <connection from="-1201006889#2" to="-1201006889#0" fromLane="0" toLane="0"/>
    <connection from="-1201006889#2" to="-106488452#3" fromLane="0" toLane="0"/>
    <connection from="-1201006889#2" to="1201006889#1" fromLane="0" toLane="0"/>

    <connection from="-1208350414" to="-57392387#0" fromLane="0" toLane="0"/>
    <connection from="-1208350414" to="-57392391#1" fromLane="0" toLane="0"/>
    <connection from="-1208350414" to="57392387#1" fromLane="0" toLane="0"/>
    <connection from="-1208350414" to="1208350414" fromLane="0" toLane="0"/>

    <connection from="-1210298197" to="-654981144#1" fromLane="0" toLane="0"/>
    <connection from="-1210298197" to="-839061070" fromLane="0" toLane="0"/>
    <connection from="-1210298197" to="654981144#2" fromLane="0" toLane="0"/>

    <connection from="-1216309710" to="57680108" fromLane="0" toLane="0"/>
    <connection from="-1216309710" to="-1238123695#2" fromLane="0" toLane="0"/>
    <connection from="-1216309710" to="1216309710" fromLane="0" toLane="0"/>

    <connection from="-1219468114" to="1219468114" fromLane="0" toLane="0"/>

    <connection from="-1238123690" to="-563369678" fromLane="0" toLane="0"/>
    <connection from="-1238123690" to="-563369678" fromLane="1" toLane="1"/>
    <connection from="-1238123690" to="1238123690" fromLane="1" toLane="1"/>

    <connection from="-1238123695#0" to="-174375409" fromLane="0" toLane="0"/>
    <connection from="-1238123695#0" to="1238123695#0" fromLane="0" toLane="0"/>

    <connection from="-1238123695#1" to="57680097#0" fromLane="0" toLane="0"/>
    <connection from="-1238123695#1" to="-1238123695#0" fromLane="0" toLane="0"/>
    <connection from="-1238123695#1" to="1238123695#1" fromLane="0" toLane="0"/>

    <connection from="-1238123695#2" to="-1238123695#1" fromLane="0" toLane="0"/>
    <connection from="-1238123695#2" to="-747349817" fromLane="0" toLane="0"/>

    <connection from="-1242838379" to="-57392387#1" fromLane="0" toLane="0"/>
    <connection from="-1242838379" to="1242838380" fromLane="0" toLane="1"/>
    <connection from="-1242838379" to="1242838379" fromLane="0" toLane="0"/>

    <connection from="-1242838382" to="1242838381#0" fromLane="0" toLane="0"/>