<?xml version="1.0" encoding="UTF-8"?>

<!-- generated on 2025-04-04 16:24:06 by Eclipse SUMO netconvert Version 1.19.0
<configuration xmlns:xsi="http://www.w3.org/2001/XMLSchema-instance" xsi:noNamespaceSchemaLocation="http://sumo.dlr.de/xsd/netconvertConfiguration.xsd">

    <input>
        <sumo-net-file value="beynes/beynes.net.xml"/>
    </input>

    <output>
        <plain-output-prefix value="beynes/beynes"/>
    </output>

    <processing>
        <geometry.min-radius.fix.railways value="false"/>
        <geometry.max-grade.fix value="false"/>
        <offset.disable-normalization value="true"/>
        <lefthand value="0"/>
    </processing>

    <tls_building>
        <tls.ignore-internal-junction-jam value="1"/>
    </tls_building>

    <junctions>
        <no-turnarounds value="true"/>
        <junctions.corner-detail value="5"/>
        <junctions.limit-turn-speed value="5.50"/>
        <rectangular-lane-cut value="0"/>
    </junctions>

    <pedestrian>
        <walkingareas value="0"/>
    </pedestrian>

</configuration>
-->

<edges version="1.16" xmlns:xsi="http://www.w3.org/2001/XMLSchema-instance" xsi:noNamespaceSchemaLocation="http://sumo.dlr.de/xsd/edges_file.xsd">
    <location netOffset="-414361.09,-5407986.92" convBoundary="0.00,0.00,6799.37,10307.42" origBoundary="1.586301,48.806252,2.067132,48.911896" projParameter="+proj=utm +zone=31 +ellps=WGS84 +datum=WGS84 +units=m +no_defs"/>

    <edge id="-1020078541" from="9408274285" to="503844951" priority="3" type="highway.residential" numLanes="1" speed="13.89" shape="4806.41,3947.13 4788.15,3966.39 4788.15,3972.10 4795.28,3976.37 4810.19,3958.93 4811.85,3952.13" disallow="tram rail_urban rail rail_electric rail_fast ship"/>
    <edge id="-1020078545" from="715102475" to="715102015" priority="3" type="highway.residential" numLanes="1" speed="8.33" disallow="tram rail_urban rail rail_electric rail_fast ship"/>
    <edge id="-1020078546#0" from="9408274299" to="9408274298" priority="3" type="highway.residential" numLanes="1" speed="8.33" shape="5599.75,4396.83 5601.31,4398.58 5616.79,4385.86" disallow="tram rail_urban rail rail_electric rail_fast ship"/>
    <edge id="-1020078546#1" from="9408274298" to="9408274299" priority="3" type="highway.residential" numLanes="1" speed="8.33" shape="5616.79,4385.86 5605.61,4376.52 5592.90,4389.10 5599.75,4396.83" disallow="tram rail_urban rail rail_electric rail_fast ship"/>
    <edge id="-1020078546#2" from="504616234" to="9408274298" priority="3" type="highway.residential" numLanes="1" speed="8.33" disallow="tram rail_urban rail rail_electric rail_fast ship"/>
    <edge id="-1020078548" from="504616146" to="cluster_504616089_504616147" priority="3" type="highway.residential" numLanes="1" speed="8.33" shape="5448.47,4299.62 5520.52,4374.78" disallow="tram rail_urban rail rail_electric rail_fast ship"/>
    <edge id="-1020092133" from="928462539" to="928462517" priority="3" type="highway.residential" numLanes="1" speed="8.33" shape="4882.91,4023.21 4886.32,4016.88 4889.51,4006.23 4891.02,3997.43 4890.20,3987.71 4886.52,3977.16 4877.83,3969.16 4860.61,3959.09" disallow="tram rail_urban rail rail_electric rail_fast ship"/>
    <edge id="-1020092137#0" from="504616035" to="504616027" priority="3" type="highway.residential" numLanes="1" speed="8.33" shape="5079.69,4161.35 5071.98,4144.62 5063.53,4129.71 5047.41,4116.36 5025.07,4110.90 5014.59,4112.03" disallow="tram rail_urban rail rail_electric rail_fast ship"/>
    <edge id="-1020092137#1" from="504616046" to="504616035" priority="3" type="highway.residential" numLanes="1" speed="8.33" shape="5232.66,4269.40 5223.94,4265.93 5201.89,4261.33 5164.10,4248.48 5136.66,4233.33 5107.24,4208.46 5087.06,4179.80 5079.69,4161.35" disallow="tram rail_urban rail rail_electric rail_fast ship"/>
    <edge id="-1020092138" from="504616091" to="504616046" priority="3" type="highway.residential" numLanes="1" speed="8.33" disallow="tram rail_urban rail rail_electric rail_fast ship"/>
    <edge id="-1020092139#0" from="9408274302" to="504616065" priority="3" type="highway.residential" numLanes="1" speed="8.33" shape="5557.40,4419.30 5555.38,4424.80 5549.97,4431.92 5536.89,4443.77 5519.31,4455.50 5502.34,4463.52 5483.73,4468.18 5462.37,4470.62 5443.54,4468.85 5425.17,4463.71" disallow="tram rail_urban rail rail_electric rail_fast ship"/>
    <edge id="-1020092139#1" from="cluster_504616089_504616147" to="9408274302" priority="3" type="highway.residential" numLanes="1" speed="8.33" shape="5519.79,4377.06 5547.97,4404.76 5555.75,4412.73 5557.57,4418.83 5557.40,4419.30" disallow="tram rail_urban rail rail_electric rail_fast ship"/>
    <edge id="-1020092140" from="503842403" to="504616065" priority="3" type="highway.residential" numLanes="1" speed="8.33" disallow="tram rail_urban rail rail_electric rail_fast ship"/>
    <edge id="-1020092141" from="504616114" to="504616110" priority="3" type="highway.residential" numLanes="1" speed="8.33" shape="5477.35,4528.31 5470.17,4524.62 5462.65,4524.30 5438.33,4522.97 5412.43,4517.27" disallow="tram rail_urban rail rail_electric rail_fast ship"/>
    <edge id="-1020092142" from="504616065" to="504616110" priority="3" type="highway.residential" numLanes="1" speed="8.33" disallow="tram rail_urban rail rail_electric rail_fast ship"/>
    <edge id="-1020092143" from="504616110" to="504616134" priority="3" type="highway.residential" numLanes="1" speed="8.33" shape="5412.43,4517.27 5405.88,4552.85 5395.84,4563.11 5381.87,4560.78 5353.26,4545.71" disallow="tram rail_urban rail rail_electric rail_fast ship"/>
    <edge id="-1024348862#0" from="1851422686" to="1851422644" priority="3" type="highway.residential" numLanes="1" speed="8.33" shape="4959.67,2044.28 4950.56,2036.47 4944.05,2026.00" disallow="tram rail_urban rail rail_electric rail_fast ship"/>
    <edge id="-1024348862#1" from="1225032964" to="1851422686" priority="3" type="highway.residential" numLanes="1" speed="8.33" disallow="tram rail_urban rail rail_electric rail_fast ship"/>
    <edge id="-1024348863" from="1485578195" to="2296267150" priority="3" type="highway.residential" numLanes="1" speed="8.33" shape="4854.12,1846.31 4818.42,1756.48 4810.54,1750.03" disallow="tram rail_urban rail rail_electric rail_fast ship"/>
    <edge id="-1024971939#0" from="cluster_4853656751_7740134414" to="9450914607" priority="12" type="highway.primary" numLanes="2" speed="13.89" shape="1279.49,1981.49 1296.63,1933.47" disallow="tram rail_urban rail rail_electric rail_fast ship">
        <param key="ref" value="D 11"/>
    </edge>
    <edge id="-1025315534" from="cluster_258848203_4853676517_7921271082_8500131001_#3more" to="9453797895" priority="10" type="highway.tertiary" numLanes="1" speed="8.33" shape="4918.78,1311.94 4919.61,1315.18 4922.74,1321.82 4934.50,1332.39" disallow="tram rail_urban rail rail_electric rail_fast ship"/>
    <edge id="-1025315535#1" from="9453797896" to="cluster_258848203_4853676517_7921271082_8500131001_#3more" priority="10" type="highway.tertiary" numLanes="1" speed="8.33" shape="4922.26,1295.89 4920.25,1301.38" disallow="tram rail_urban rail rail_electric rail_fast ship"/>
    <edge id="-1025474680" from="5411416324" to="1225032290" priority="4" type="highway.unclassified" numLanes="1" speed="13.89" shape="5267.40,1855.03 5271.34,1848.47 5287.61,1843.93 5323.86,1837.73" disallow="tram rail_urban rail rail_electric rail_fast ship"/>
    <edge id="-1025474681" from="1225032290" to="1225049506" priority="4" type="highway.unclassified" numLanes="1" speed="8.33" shape="5323.86,1837.73 5362.87,1828.70 5377.09,1826.49 5410.89,1823.74 5429.50,1823.03 5456.92,1825.36" disallow="tram rail_urban rail rail_electric rail_fast ship"/>
    <edge id="-1025474682#0" from="1225033400" to="9455157436" priority="4" type="highway.unclassified" numLanes="1" speed="13.89" shape="5538.35,1841.29 5551.85,1837.69 5571.81,1829.90 5596.60,1818.83" disallow="tram rail_urban rail rail_electric rail_fast ship"/>
    <edge id="-1025474682#1" from="1225049506" to="1225033400" priority="4" type="highway.unclassified" numLanes="1" speed="13.89" shape="5456.92,1825.36 5472.01,1827.47 5488.71,1832.63 5504.99,1838.98 5523.83,1842.60 5538.35,1841.29" disallow="tram rail_urban rail rail_electric rail_fast ship"/>
    <edge id="-1025474683" from="9455157436" to="1225035779" priority="4" type="highway.unclassified" numLanes="1" speed="8.33" shape="5596.60,1818.83 5614.89,1810.67 5631.92,1801.62 5683.93,1776.36 5708.55,1764.61" disallow="tram rail_urban rail rail_electric rail_fast ship"/>
    <edge id="-1025474684" from="4934644007" to="1225048604" priority="4" type="highway.unclassified" numLanes="1" speed="13.89" shape="5832.33,1707.42 5848.73,1701.27 5924.79,1667.96" disallow="tram rail_urban rail rail_electric rail_fast ship"/>
    <edge id="-1031396131" from="9505881601" to="9505881589" priority="1" type="highway.path" numLanes="1" speed="5.56" shape="3232.56,1758.54 3227.22,1760.88 3219.94,1765.98 3214.98,1768.86 3209.79,1770.94 3203.07,1772.79 3179.72,1779.70 3170.92,1782.32 3153.70,1787.42 3110.47,1799.79 3081.34,1808.78 3070.84,1811.54 3055.90,1815.43 3047.55,1816.93 3042.25,1817.70" width="2.00" allow="pedestrian bicycle"/>
    <edge id="-1034110351#0" from="486608890" to="258848137" priority="3" type="highway.residential" numLanes="1" speed="8.33" disallow="tram rail_urban rail rail_electric rail_fast ship"/>
    <edge id="-106488397" from="1225038810" to="1225036381" priority="1" type="highway.track" numLanes="1" speed="22.22" shape="4300.55,6360.25 4288.59,6352.68 4281.55,6348.06 4268.73,6345.24 4217.91,6314.18 4209.28,6303.33 4198.26,6283.23 4184.74,6265.71 4167.97,6247.80 4144.72,6221.13 4139.12,6214.73 4133.20,6205.53 4126.36,6191.00 4118.20,6173.82 4110.47,6156.07 4103.47,6140.69 4097.21,6127.41 4087.81,6111.94 4079.28,6097.98 4071.64,6086.99 4063.58,6075.71 4044.60,6051.78 4022.44,6022.42 4006.24,6000.89" allow="pedestrian motorcycle moped bicycle"/>
    <edge id="-106488422" from="1225042428" to="1225043763" priority="1" type="highway.track" numLanes="1" speed="5.56" shape="4765.81,3032.73 4755.34,3003.08 4745.69,2962.93 4740.18,2937.12 4741.37,2918.30 4743.09,2904.73 4747.11,2891.84 4768.44,2859.48 4779.33,2844.03 4780.41,2837.38 4779.56,2832.54 4777.41,2819.34 4779.18,2805.89 4780.52,2783.58 4780.72,2777.46 4782.80,2774.57 4786.54,2772.57 4803.71,2771.42 4820.91,2768.58 4844.25,2763.79 4864.13,2755.77 4876.36,2751.00 4888.60,2751.43 4898.79,2750.32 4907.00,2744.06 4914.54,2731.64 4931.25,2711.54 4942.82,2704.50 4972.40,2684.59 4985.55,2675.95 4997.25,2669.66 5013.60,2661.33 5022.91,2659.36 5029.11,2654.86 5047.50,2635.23 5062.87,2618.35 5075.43,2602.98 5086.41,2588.97 5095.79,2574.50 5113.71,2547.89 5121.14,2534.43 5127.90,2523.97" allow="pedestrian motorcycle moped bicycle"/>
    <edge id="-106488428" from="11248772069" to="1225034276" priority="1" type="highway.track" numLanes="1" speed="5.56" shape="6154.15,6151.40 6155.22,6136.85 6154.87,6121.58 6154.41,6075.20 6153.49,6033.67 6152.39,6014.30 6148.86,5988.14 6145.80,5967.69 6141.95,5947.04 6137.19,5931.93 6130.85,5917.25 6121.29,5898.27 6113.77,5883.99 6106.89,5872.85 6097.41,5859.78 6057.24,5814.73 6025.34,5778.23 6015.56,5768.02 5993.30,5749.12 5965.76,5724.39 5950.97,5709.81 5933.97,5696.01 5921.72,5685.10 5913.43,5675.86 5894.73,5646.81 5886.15,5634.61 5877.11,5624.39 5865.14,5616.44 5852.20,5610.46 5842.53,5607.64 5832.89,5608.02 5821.06,5610.17 5814.12,5611.01 5807.85,5607.16 5812.48,5597.59 5820.64,5587.95 5827.62,5582.68 5835.88,5580.29 5844.58,5579.34 5860.60,5582.41 5890.76,5587.57 5909.69,5591.64 5931.51,5594.43 5960.17,5596.51 5967.00,5595.58 5972.16,5593.24 5978.91,5586.92 5992.10,5566.06 5999.06,5559.75 6005.84,5554.90 6015.28,5547.73 6024.51,5539.94 6037.12,5522.81 6059.25,5489.39 6089.72,5445.85" allow="pedestrian motorcycle moped bicycle"/>
    <edge id="-106488432#0" from="1225034632" to="1225040101" priority="1" type="highway.track" numLanes="1" speed="5.56" shape="5838.54,4021.19 5834.16,4022.92 5825.14,4029.55 5765.59,4081.59 5708.67,4127.50" allow="pedestrian motorcycle moped bicycle"/>
    <edge id="-106488432#1" from="12060094324" to="1225034632" priority="1" type="highway.track" numLanes="1" speed="5.56" shape="5934.36,4118.25 5906.40,4093.35 5892.88,4082.50 5880.72,4071.46 5870.21,4058.44 5860.93,4046.61 5853.16,4034.61 5847.26,4025.91 5842.97,4022.48 5838.54,4021.19" allow="pedestrian motorcycle moped bicycle"/>
    <edge id="-106488432#2" from="1225031493" to="12060094324" priority="1" type="highway.track" numLanes="1" speed="5.56" shape="6188.40,4389.33 6179.49,4371.43 6165.91,4346.04 6154.09,4326.36 6143.83,4311.31 6141.53,4307.92 6133.01,4296.23 6120.68,4284.29 6106.22,4270.86 6081.61,4249.11 6056.70,4227.51 6036.51,4209.57 6033.68,4207.42 6022.73,4199.06 5986.71,4165.51 5957.47,4138.82 5934.36,4118.25" allow="pedestrian motorcycle moped bicycle"/>
    <edge id="-106488452#1" from="1225039567" to="cluster_1225036640_7921271076" priority="1" type="highway.track" numLanes="1" speed="5.56" shape="5133.13,1091.42 5127.87,1089.52 5119.86,1087.91 5004.28,1072.55" allow="pedestrian motorcycle moped bicycle"/>
    <edge id="-106488452#2" from="1225037885" to="1225039567" priority="1" type="highway.track" numLanes="1" speed="5.56" shape="5677.92,1048.83 5574.29,1096.87 5537.85,1114.06 5511.09,1127.32 5502.72,1131.73 5492.46,1135.27 5483.39,1136.94 5473.91,1137.56 5462.78,1137.00 5406.53,1128.87 5350.81,1120.36 5266.35,1110.40 5209.27,1103.45 5157.73,1096.59 5133.13,1091.42" allow="pedestrian motorcycle moped bicycle"/>
    <edge id="-106488452#3" from="1225048068" to="1225037885" priority="1" type="highway.track" numLanes="1" speed="5.56" shape="6471.53,728.84 6451.66,732.93 6446.92,729.21 6439.18,729.32 6397.92,743.69 6318.83,774.14 6262.30,793.79 6226.23,808.09 6153.20,836.06 6114.48,850.77 6082.93,861.72 6065.90,868.28 6044.11,878.46 5992.70,901.69 5957.05,918.39 5890.28,949.69 5882.28,953.24 5877.55,954.93 5828.80,977.63 5758.26,1010.62 5687.09,1044.52 5677.92,1048.83" allow="pedestrian motorcycle moped bicycle"/>
    <edge id="-106488455#0" from="cluster_1396603621_1396603622" to="1225032964" priority="1" type="highway.track" numLanes="1" speed="13.89" shape="5001.37,2087.70 4998.03,2078.99" allow="pedestrian motorcycle moped bicycle"/>
    <edge id="-106488455#2" from="1225046471" to="cluster_1396603621_1396603622" priority="1" type="highway.track" numLanes="1" speed="13.89" shape="5039.94,2251.54 5039.29,2248.46 5033.24,2227.97 5029.90,2213.17 5024.69,2201.04 5011.88,2178.49 5005.21,2164.71 5000.72,2153.52 4998.38,2140.87 4998.92,2128.18 5004.92,2104.07 5004.86,2098.90 5002.77,2091.23" allow="pedestrian motorcycle moped bicycle"/>
    <edge id="-106488455#3" from="1225044641" to="1225046471" priority="1" type="highway.track" numLanes="1" speed="13.89" shape="5041.03,2285.29 5041.12,2275.01 5042.13,2262.06 5039.94,2251.54" allow="pedestrian motorcycle moped bicycle"/>
    <edge id="-106488542" from="1225032005" to="1225046471" priority="1" type="highway.track" numLanes="1" speed="5.56" shape="4209.13,3319.68 4213.80,3327.62 4218.31,3335.26 4229.57,3359.92 4239.18,3378.71 4241.89,3383.01 4247.72,3388.36 4256.63,3391.33 4294.73,3389.69 4383.44,3378.94 4407.36,3376.26 4417.28,3373.33 4429.32,3367.09 4435.41,3357.39 4440.02,3343.04 4442.70,3324.23 4443.93,3301.25 4443.71,3286.67 4442.69,3269.92 4439.33,3252.60 4433.40,3230.18 4424.12,3201.61 4418.55,3182.76 4416.01,3169.15 4415.98,3155.79 4419.22,3143.18 4426.16,3128.18 4435.72,3111.45 4449.02,3073.85 4463.15,3018.41 4472.80,2986.15 4479.82,2976.43 4490.94,2970.52 4505.50,2965.82 4540.21,2955.53 4553.53,2951.61 4566.05,2945.38 4577.89,2935.59 4597.53,2916.21 4609.32,2902.86 4620.15,2887.33 4627.90,2874.66 4634.19,2857.64 4639.04,2838.03 4641.81,2814.24 4642.19,2743.79 4642.94,2720.50 4645.27,2709.13 4653.61,2694.74 4664.74,2678.91 4679.84,2667.67 4691.75,2662.53 4704.93,2659.39 4719.87,2659.64 4734.54,2662.06 4768.11,2669.49 4784.16,2671.27 4793.96,2670.82 4807.30,2667.53 4821.05,2660.81 4838.16,2648.77 4846.43,2639.96 4851.77,2632.28 4856.87,2619.48 4868.41,2578.19 4880.71,2534.71 4885.65,2521.61 4890.17,2511.46 4899.30,2496.90 4907.70,2485.45 4914.87,2476.34 4929.73,2459.52 4938.77,2449.30 4952.81,2430.31 4975.79,2394.29 4986.73,2376.13 4994.27,2358.65 5001.69,2334.17 5005.68,2308.04 5007.88,2298.86 5039.94,2251.54" allow="pedestrian motorcycle moped bicycle"/>
    <edge id="-106488545" from="1225036885" to="241791165" priority="1" type="highway.track" numLanes="1" speed="5.56" shape="3377.33,1198.09 3331.23,1167.75 3307.52,1148.36 3227.14,1094.77 3171.29,1060.95 3128.28,1047.48 3103.02,1033.36 3094.01,1025.43 3091.39,1011.77 3095.98,967.40 3093.24,937.55" allow="pedestrian motorcycle moped bicycle"/>
    <edge id="-106488547#0" from="1225035462" to="1225038109" priority="1" type="highway.track" numLanes="1" speed="5.56" shape="2523.62,1257.34 2662.88,1162.38 2688.50,1125.30 2708.31,1103.15 2745.66,1062.51" allow="pedestrian motorcycle moped bicycle"/>
    <edge id="-106488548" from="1225035779" to="4934644007" priority="4" type="highway.unclassified" numLanes="1" speed="13.89" shape="5708.55,1764.61 5742.67,1750.82 5762.92,1741.82 5781.23,1731.75 5800.05,1721.38 5819.59,1712.19 5832.33,1707.42" disallow="tram rail_urban rail rail_electric rail_fast ship"/>
    <edge id="-106488581" from="1225043763" to="1225036789" priority="1" type="highway.track" numLanes="1" speed="5.56" shape="5127.90,2523.97 5138.36,2520.88 5149.77,2518.70 5168.00,2517.70 5205.77,2516.05 5240.40,2513.53 5256.81,2513.66 5268.42,2513.50 5279.84,2512.60 5291.59,2509.30 5314.29,2498.13 5327.12,2492.43 5337.59,2489.89 5351.23,2489.88 5370.23,2490.88 5389.23,2490.99 5402.10,2488.96 5417.48,2481.39 5430.09,2473.85 5453.77,2453.47 5506.73,2405.66 5521.40,2392.54 5523.66,2390.52 5536.95,2378.93 5546.09,2373.28 5559.29,2368.14 5583.11,2359.96 5599.46,2355.41 5674.31,2332.22" allow="pedestrian motorcycle moped bicycle"/>
    <edge id="-106488588#0" from="1225031015" to="471527428" priority="1" type="highway.track" numLanes="1" speed="5.56" shape="3677.91,1872.98 3672.25,1877.87 3668.47,1887.54 3672.21,1904.64 3680.39,1932.26 3692.09,1973.99 3700.68,2002.77 3707.23,2024.01 3737.49,2097.68 3780.52,2205.88 3798.58,2259.19 3806.21,2280.49 3815.25,2303.33 3819.37,2318.33 3822.03,2330.39 3822.92,2339.04 3824.33,2372.97 3826.87,2525.08 3826.59,2629.92" allow="pedestrian motorcycle moped bicycle"/>
    <edge id="-106488588#1" from="3432241187" to="1225031015" priority="1" type="highway.track" numLanes="1" speed="5.56" shape="3544.82,1683.03 3574.20,1721.00 3580.82,1729.55 3588.56,1741.25 3593.51,1748.72 3616.72,1788.80 3628.45,1804.44 3653.83,1836.54 3677.91,1872.98" allow="pedestrian motorcycle moped bicycle"/>
    <edge id="-106488712" from="928507131" to="258848121" priority="1" type="highway.track" numLanes="1" speed="5.56" shape="6095.32,3145.11 6077.96,3083.95 6056.65,3015.31 6025.03,2905.68 5999.19,2823.27 5971.45,2737.87 5922.38,2576.05 5912.32,2537.83" allow="pedestrian motorcycle moped bicycle"/>
    <edge id="-1076634450" from="504616190" to="504616198" priority="3" type="highway.residential" numLanes="1" speed="8.33" disallow="tram rail_urban rail rail_electric rail_fast ship"/>
    <edge id="-108053052#0" from="1339056708" to="3432241188" priority="1" type="highway.track" numLanes="1" speed="22.22" shape="3639.01,1654.29 3643.81,1666.21 3819.37,1862.29 3829.73,1866.46 4404.79,1732.35 4421.47,1723.82 4471.59,1684.56" allow="pedestrian motorcycle moped bicycle"/>
    <edge id="-108053052#1" from="1106397320" to="1339056708" priority="1" type="highway.track" numLanes="1" speed="22.22" shape="4119.28,1549.28 4062.78,1533.41 3997.50,1528.29 3922.79,1527.10 3862.16,1526.24 3781.80,1524.27 3707.79,1525.36 3673.25,1532.15 3656.15,1548.11 3643.75,1564.19 3632.07,1583.67 3627.18,1612.92 3634.36,1641.58 3639.01,1654.29" allow="pedestrian motorcycle moped bicycle"/>
    <edge id="-108053052#2" from="3432241188" to="1106397320" priority="1" type="highway.track" numLanes="1" speed="22.22" allow="pedestrian motorcycle moped bicycle"/>
    <edge id="-1088188245" from="9970195052" to="8669306469" priority="1" type="highway.service" numLanes="1" speed="5.56" shape="2434.99,1985.34 2429.90,1987.19 2426.07,1987.44 2420.53,1986.25" allow="pedestrian delivery bicycle"/>
    <edge id="-1088188246" from="9970195054" to="8669306469" priority="1" type="highway.service" numLanes="1" speed="5.56" shape="2407.94,1993.00 2417.54,1989.83 2420.53,1986.25" allow="pedestrian delivery bicycle"/>
    <edge id="-1116499321#1" from="241790299" to="241790243" priority="12" type="highway.primary" numLanes="2" speed="8.33" shape="2964.06,4343.15 2969.88,4354.32 2976.10,4367.48 2979.50,4377.01 2980.27,4387.69 2978.68,4403.46 2976.05,4424.58 2972.55,4442.20 2963.43,4476.10 2952.75,4516.41 2947.68,4527.05" disallow="tram rail_urban rail rail_electric rail_fast ship">
        <param key="ref" value="D 191"/>
    </edge>
    <edge id="-1116499322" from="241790243" to="241790241" priority="12" type="highway.primary" numLanes="2" speed="8.33" shape="2947.68,4527.05 2929.03,4555.22 2922.15,4567.08 2917.44,4578.23" disallow="tram rail_urban rail rail_electric rail_fast ship">
        <param key="ref" value="D 191"/>
    </edge>
    <edge id="-1116499323#0" from="712614884" to="241790227" priority="12" type="highway.primary" numLanes="2" speed="13.89" disallow="tram rail_urban rail rail_electric rail_fast ship">
        <param key="ref" value="D 191"/>
    </edge>
    <edge id="-1116499323#1" from="241790235" to="712614884" priority="12" type="highway.primary" numLanes="2" speed="13.89" shape="2866.39,4993.58 2835.61,5424.01 2831.66,5473.35" disallow="tram rail_urban rail rail_electric rail_fast ship">
        <param key="ref" value="D 191"/>
    </edge>
    <edge id="-1116499324#0" from="cluster_4085448982_699691251" to="715102342" priority="3" type="highway.residential" numLanes="1" speed="13.89" shape="3138.23,4674.15 3119.57,4670.11" disallow="tram rail_urban rail rail_electric rail_fast ship"/>
    <edge id="-1116499324#2" from="715102810" to="cluster_4085448982_699691251" priority="3" type="highway.residential" numLanes="1" speed="13.89" shape="3158.45,4677.52 3141.87,4674.83" disallow="tram rail_urban rail rail_electric rail_fast ship"/>
    <edge id="-1116499328#0" from="2721315989" to="715102688" priority="3" type="highway.residential" numLanes="1" speed="8.33" disallow="tram rail_urban rail rail_electric rail_fast ship"/>
    <edge id="-1116499328#1" from="715101848" to="2721315989" priority="3" type="highway.residential" numLanes="1" speed="8.33" disallow="tram rail_urban rail rail_electric rail_fast ship"/>
    <edge id="-1116499329" from="715102379" to="715101848" priority="3" type="highway.residential" numLanes="1" speed="8.33" shape="3185.69,4342.61 3184.44,4346.85 3163.84,4412.75 3161.00,4423.37" disallow="tram rail_urban rail rail_electric rail_fast ship"/>
    <edge id="-1116499330#0" from="715101875" to="715102379" priority="3" type="highway.residential" numLanes="1" speed="8.33" shape="3170.73,4233.90 3184.43,4240.96 3194.50,4249.02 3198.37,4258.98 3198.38,4272.06 3195.15,4300.65 3187.48,4334.75 3185.69,4342.61" disallow="tram rail_urban rail rail_electric rail_fast ship"/>
    <edge id="-1116499331#0" from="715102166" to="715101509" priority="3" type="highway.residential" numLanes="1" speed="8.33" shape="3283.34,4300.01 3272.61,4314.16 3230.58,4348.39 3224.11,4352.14 3216.49,4353.93" disallow="tram rail_urban rail rail_electric rail_fast ship"/>
    <edge id="-1116499332#0" from="cluster_4859658726_715101776" to="715102379" priority="3" type="highway.residential" numLanes="1" speed="8.33" shape="3198.31,4348.49 3185.69,4342.61" disallow="tram rail_urban rail rail_electric rail_fast ship"/>
    <edge id="-1116499332#2" from="715101509" to="cluster_4859658726_715101776" priority="3" type="highway.residential" numLanes="1" speed="8.33" shape="3216.49,4353.93 3208.70,4352.52 3201.80,4349.74" disallow="tram rail_urban rail rail_electric rail_fast ship"/>
    <edge id="-1116499333" from="10211731947" to="715101509" priority="1" type="highway.service" numLanes="1" speed="8.33" allow="pedestrian delivery bicycle"/>
    <edge id="-1123308754" from="715101477" to="715102732" priority="1" type="highway.track" numLanes="1" speed="22.22" shape="3571.60,5795.68 3576.20,5721.10 3555.39,5661.18" allow="pedestrian motorcycle moped bicycle"/>
    <edge id="-1157449877" from="503845666" to="503845658" priority="3" type="highway.residential" numLanes="1" speed="8.33" shape="5203.32,4104.26 5193.05,4082.59 5194.09,4077.14" disallow="tram rail_urban rail rail_electric rail_fast ship"/>
    <edge id="-1157449878#0" from="258848150" to="258848145" priority="3" type="highway.residential" numLanes="1" speed="8.33" shape="5016.10,4051.98 5012.74,4051.19 4995.43,4047.13 4979.88,4037.60 4971.75,4027.19 4965.66,4015.46 4963.88,3997.40 4966.26,3906.93 4967.85,3887.97 4963.46,3872.42 4950.11,3852.61 4916.84,3821.88" disallow="tram rail_urban rail rail_electric rail_fast ship"/>
    <edge id="-1157449878#1" from="503842389" to="258848150" priority="3" type="highway.residential" numLanes="1" speed="8.33" shape="5128.50,4138.68 5125.23,4129.95 5121.11,4118.96 5106.45,4093.65 5081.14,4071.57 5052.77,4058.94 5016.10,4051.98" disallow="tram rail_urban rail rail_electric rail_fast ship"/>
    <edge id="-1157449879" from="503842389" to="504616035" priority="3" type="highway.residential" numLanes="1" speed="8.33" shape="5128.50,4138.68 5119.90,4142.72 5079.69,4161.35" disallow="tram rail_urban rail rail_electric rail_fast ship"/>
    <edge id="-1163710302" from="713881718" to="713881697" priority="3" type="highway.residential" numLanes="1" speed="2.78" shape="3025.69,3954.42 3021.36,3959.00 3007.96,3981.79" disallow="tram rail_urban rail rail_electric rail_fast ship"/>
    <edge id="-1163827397" from="1851422579" to="10823888514" priority="1" type="highway.service" numLanes="1" speed="5.56" shape="5172.41,1788.10 5167.62,1798.04 5158.97,1821.80" allow="pedestrian delivery bicycle"/>
    <edge id="-116495427#1" from="486608790" to="cluster_1313123195_4085448082" priority="4" type="highway.unclassified" numLanes="1" speed="22.22" shape="5747.06,1202.29 5756.57,1217.75 5768.82,1240.91 5779.36,1262.32 5787.44,1279.70 5795.23,1297.26 5800.70,1311.27 5807.31,1330.48 5811.31,1343.91 5815.76,1359.52 5821.79,1378.24 5827.71,1393.95 5888.82,1532.78 5930.14,1626.39" disallow="tram rail_urban rail rail_electric rail_fast ship"/>
    <edge id="-1176535826#1" from="10931253833" to="cluster_10931253834_4023125887" priority="1" type="highway.track" numLanes="1" speed="5.56" shape="4363.56,4696.00 4369.64,4685.48 4372.86,4661.91 4370.74,4638.63 4372.78,4619.35" allow="pedestrian motorcycle moped bicycle"/>
    <edge id="-1176535827#0" from="10931253847" to="cluster_10931253834_4023125887" priority="1" type="highway.track" numLanes="1" speed="5.56" shape="4169.29,4929.45 4190.38,4910.05 4202.98,4889.23 4209.45,4859.18 4230.06,4792.06 4236.73,4760.89 4245.96,4737.89 4253.62,4728.68 4273.97,4704.41 4286.57,4682.91 4300.97,4662.96 4322.97,4644.87 4343.92,4631.26 4372.78,4619.35" allow="pedestrian motorcycle moped bicycle"/>
    <edge id="-1176535827#1" from="10931253860" to="10931253847" priority="1" type="highway.track" numLanes="1" speed="5.56" shape="3832.61,5165.65 3839.44,5160.23 3853.41,5141.60 3877.81,5120.59 3896.92,5103.22 3935.21,5072.70 3963.45,5055.42 4001.22,5020.02 4034.63,4991.57 4074.30,4948.82 4086.91,4943.09 4104.45,4940.61 4150.68,4935.05 4169.29,4929.45" allow="pedestrian motorcycle moped bicycle"/>
    <edge id="-1176535827#2" from="5837201161" to="10931253860" priority="1" type="highway.track" numLanes="1" speed="5.56" shape="3819.64,5153.00 3821.36,5156.93 3825.02,5163.32 3832.61,5165.65" allow="pedestrian motorcycle moped bicycle"/>
    <edge id="-1176535828" from="10931253847" to="10931253860" priority="1" type="highway.track" numLanes="1" speed="5.56" shape="4169.29,4929.45 4150.90,4950.37 4103.16,4989.01 4060.03,5023.60 3997.70,5068.91 3969.20,5099.06 3940.25,5127.67 3923.30,5156.33 3895.58,5178.49 3873.46,5188.58 3852.70,5184.45 3844.26,5170.58 3832.61,5165.65" allow="pedestrian motorcycle moped bicycle"/>
    <edge id="-1176535829#0" from="10931253885" to="10931253847" priority="1" type="highway.track" numLanes="1" speed="5.56" shape="4524.21,5045.09 4488.50,5021.57 4455.22,4998.09 4379.33,4953.68 4320.43,4913.70 4286.84,4900.00 4263.20,4897.23 4250.77,4899.19 4217.56,4911.88 4169.29,4929.45" allow="pedestrian motorcycle moped bicycle"/>
    <edge id="-1176535830#0" from="10931253888" to="10931253885" priority="1" type="highway.track" numLanes="1" speed="5.56" shape="4620.75,4992.34 4587.62,5009.69 4544.97,5031.85 4524.21,5045.09" allow="pedestrian motorcycle moped bicycle"/>
    <edge id="-1176535831" from="10931253893" to="10931253888" priority="1" type="highway.track" numLanes="1" speed="5.56" allow="pedestrian motorcycle moped bicycle"/>
    <edge id="-1176535832" from="10931253899" to="10931253888" priority="1" type="highway.track" numLanes="1" speed="5.56" shape="4503.17,4667.55 4503.42,4715.06 4507.44,4762.27 4510.99,4807.50 4520.69,4831.33 4536.45,4858.85 4620.75,4992.34" allow="pedestrian motorcycle moped bicycle"/>
    <edge id="-1176535837#0" from="10931261459" to="4023126450" priority="1" type="highway.service" numLanes="1" speed="5.56" shape="5142.53,5150.68 5082.10,5181.71 5077.11,5195.40" allow="pedestrian delivery bicycle"/>
    <edge id="-1176535837#1" from="10931261436" to="10931261459" priority="1" type="highway.service" numLanes="1" speed="5.56" allow="pedestrian delivery bicycle"/>
    <edge id="-1176535837#2" from="10931261437" to="10931261436" priority="1" type="highway.service" numLanes="1" speed="5.56" allow="pedestrian delivery bicycle"/>