<?xml version="1.0" encoding="UTF-8"?>

<!-- generated on 2025-04-04 16:24:06 by Eclipse SUMO netconvert Version 1.19.0
<configuration xmlns:xsi="http://www.w3.org/2001/XMLSchema-instance" xsi:noNamespaceSchemaLocation="http://sumo.dlr.de/xsd/netconvertConfiguration.xsd">

    <input>
        <sumo-net-file value="beynes/beynes.net.xml"/>
    </input>

    <output>
        <plain-output-prefix value="beynes/beynes"/>
    </output>

    <processing>
        <geometry.min-radius.fix.railways value="false"/>
        <geometry.max-grade.fix value="false"/>
        <offset.disable-normalization value="true"/>
        <lefthand value="0"/>
    </processing>

    <tls_building>
        <tls.ignore-internal-junction-jam value="1"/>
    </tls_building>

    <junctions>
        <no-turnarounds value="true"/>
        <junctions.corner-detail value="5"/>
        <junctions.limit-turn-speed value="5.50"/>
        <rectangular-lane-cut value="0"/>
    </junctions>

    <pedestrian>
        <walkingareas value="0"/>
    </pedestrian>

</configuration>
-->

<nodes version="1.16" xmlns:xsi="http://www.w3.org/2001/XMLSchema-instance" xsi:noNamespaceSchemaLocation="http://sumo.dlr.de/xsd/nodes_file.xsd">
    <location netOffset="-414361.09,-5407986.92" convBoundary="0.00,0.00,6799.37,10307.42" origBoundary="1.586301,48.806252,2.067132,48.911896" projParameter="+proj=utm +zone=31 +ellps=WGS84 +datum=WGS84 +units=m +no_defs"/>

    <node id="10211724710" x="3134.91" y="4091.07" type="dead_end"/>
    <node id="10211724712" x="3125.59" y="4163.58" type="dead_end"/>
    <node id="10211724715" x="3126.09" y="4043.90" type="dead_end"/>
    <node id="10211724716" x="3123.04" y="4047.79" type="priority"/>
    <node id="10211731917" x="3140.80" y="4061.41" type="priority"/>
    <node id="10211731934" x="3013.67" y="4578.96" type="priority"/>
    <node id="10211731936" x="3041.37" y="4599.02" type="priority"/>
    <node id="10211731942" x="3147.77" y="4446.27" type="right_before_left"/>
    <node id="10211731947" x="3217.58" y="4369.84" type="priority"/>
    <node id="10211731957" x="3185.82" y="4451.93" type="dead_end"/>
    <node id="10211731973" x="3134.24" y="4590.29" type="priority"/>
    <node id="10211731975" x="3146.36" y="4590.90" type="dead_end"/>
    <node id="10211731986" x="3177.55" y="4525.58" type="dead_end"/>
    <node id="10211731988" x="3181.80" y="4487.58" type="dead_end"/>
    <node id="10211731992" x="3176.05" y="4533.82" type="dead_end"/>
    <node id="10211731995" x="3175.64" y="4535.78" type="dead_end"/>
    <node id="10211731996" x="3154.26" y="4531.73" type="dead_end"/>
    <node id="10211731997" x="3156.42" y="4520.05" type="dead_end"/>
    <node id="10211731998" x="3154.60" y="4529.91" type="dead_end"/>
    <node id="10211732002" x="3159.22" y="4520.56" type="dead_end"/>
    <node id="10211732022" x="3169.75" y="4454.46" type="dead_end"/>
    <node id="10211732024" x="3173.11" y="4446.00" type="dead_end"/>
    <node id="10211732025" x="3172.01" y="4451.97" type="dead_end"/>
    <node id="10211732026" x="3175.49" y="4433.24" type="dead_end"/>
    <node id="10211732027" x="3173.83" y="4446.12" type="dead_end"/>
    <node id="10272963606" x="3834.65" y="3155.80" type="right_before_left"/>
    <node id="10763902447" x="5320.87" y="3936.66" type="dead_end"/>
    <node id="10763902448" x="5316.07" y="3937.55" type="priority"/>
    <node id="10763902449" x="5310.41" y="3938.58" type="priority"/>
    <node id="10763902450" x="5304.36" y="3939.56" type="priority"/>
    <node id="10763902451" x="5301.91" y="3940.00" type="dead_end"/>
    <node id="10763902454" x="5309.77" y="4015.99" type="dead_end"/>
    <node id="10763902457" x="5205.48" y="3946.74" type="right_before_left"/>
    <node id="10763902459" x="5194.79" y="3936.36" type="dead_end"/>
    <node id="10814513851" x="4601.80" y="3726.75" type="priority"/>
    <node id="10814513859" x="3260.31" y="3428.52" type="priority"/>
    <node id="10814513865" x="3250.41" y="3397.78" type="priority"/>
    <node id="10822663471" x="2979.14" y="3926.06" type="priority"/>
    <node id="10823888514" x="5158.97" y="1821.80" type="priority"/>
    <node id="10845592140" x="2127.74" y="4443.35" type="priority"/>
    <node id="10931253833" x="4363.56" y="4696.00" type="priority"/>
    <node id="10931253847" x="4169.29" y="4929.45" type="right_before_left"/>
    <node id="10931253860" x="3832.61" y="5165.65" type="right_before_left"/>
    <node id="10931253885" x="4524.21" y="5045.09" type="right_before_left"/>
    <node id="10931253888" x="4620.75" y="4992.34" type="right_before_left"/>
    <node id="10931253893" x="4683.90" y="5090.65" type="right_before_left"/>
    <node id="10931253899" x="4503.17" y="4667.55" type="priority"/>
    <node id="10931261436" x="5165.14" y="5139.08" type="right_before_left"/>
    <node id="10931261437" x="5150.48" y="5077.78" type="priority"/>
    <node id="10931261453" x="5498.97" y="5129.74" type="priority"/>
    <node id="10931261458" x="5564.03" y="5203.67" type="right_before_left"/>
    <node id="10931261459" x="5142.53" y="5150.68" type="right_before_left"/>
    <node id="10931261461" x="5200.07" y="5236.07" type="right_before_left"/>
    <node id="10931261462" x="5228.53" y="5275.93" type="priority"/>
    <node id="10931261463" x="5112.29" y="5230.09" type="right_before_left"/>
    <node id="10931261466" x="5218.92" y="5262.48" type="right_before_left"/>
    <node id="10931261467" x="5062.70" y="5184.49" type="priority"/>
    <node id="10931261475" x="4736.29" y="5174.35" type="right_before_left"/>
    <node id="10931414392" x="5209.68" y="5142.86" type="right_before_left"/>
    <node id="10931414393" x="5218.19" y="5177.15" type="right_before_left"/>
    <node id="10931414400" x="5250.90" y="5224.78" type="right_before_left"/>
    <node id="10931414403" x="5215.70" y="5235.89" type="right_before_left"/>
    <node id="10931723642" x="2831.48" y="5708.45" type="priority"/>
    <node id="10931723650" x="2820.91" y="5775.57" type="priority"/>
    <node id="10974836028" x="3450.49" y="3564.66" type="priority"/>
    <node id="10974836031" x="3510.14" y="3525.05" type="priority"/>
    <node id="10974836032" x="3513.26" y="3522.57" type="dead_end"/>
    <node id="10974836043" x="3505.90" y="3508.24" type="dead_end"/>
    <node id="10974836046" x="3515.48" y="3525.83" type="dead_end"/>
    <node id="10974836049" x="3434.19" y="3589.02" type="priority"/>
    <node id="10974836051" x="3422.78" y="3589.88" type="dead_end"/>
    <node id="11005831281" x="2906.48" y="2583.31" type="priority"/>
    <node id="11030251060" x="5527.10" y="2103.22" type="priority"/>
    <node id="11030251068" x="5461.60" y="2032.52" type="priority"/>
    <node id="11030251073" x="5522.37" y="2085.35" type="right_before_left"/>
    <node id="11048178527" x="2540.05" y="6105.22" type="priority"/>
    <node id="11048178534" x="3344.65" y="5980.61" type="priority"/>
    <node id="1106397320" x="4119.28" y="1549.28" type="priority"/>
    <node id="1106397368" x="2731.72" y="1041.56" type="priority"/>
    <node id="1106397413" x="2832.56" y="1174.24" type="priority"/>
    <node id="1106397448" x="2997.49" y="1632.83" type="priority"/>
    <node id="11196406067" x="489.12" y="2396.93" type="priority"/>
    <node id="11212476565" x="3221.41" y="4015.77" type="right_before_left"/>
    <node id="11212476568" x="3250.13" y="3976.44" type="dead_end"/>
    <node id="11248772069" x="6154.15" y="6151.40" type="priority"/>
    <node id="11270058862" x="3683.29" y="3493.93" type="priority"/>
    <node id="11500786396" x="2970.25" y="4220.94" type="dead_end"/>
    <node id="11550046520" x="543.73" y="2668.76" type="priority"/>
    <node id="11550046521" x="716.74" y="2538.26" type="priority"/>
    <node id="11550046536" x="350.47" y="2814.34" type="priority"/>
    <node id="11570040568" x="3198.55" y="3998.29" type="right_before_left"/>
    <node id="11570087369" x="3183.21" y="4017.22" type="priority"/>
    <node id="11570087373" x="5271.68" y="4181.98" type="dead_end"/>
    <node id="11584381683" x="3176.77" y="4027.77" type="dead_end"/>
    <node id="11584381690" x="3026.54" y="4042.16" type="priority"/>
    <node id="11584381691" x="3006.89" y="4034.15" type="priority"/>
    <node id="11584381698" x="4551.78" y="3518.49" type="right_before_left"/>
    <node id="11584381699" x="4545.53" y="3495.82" type="priority"/>
    <node id="11584381700" x="4871.45" y="3472.65" type="priority"/>
    <node id="11584381701" x="5247.31" y="4120.00" type="dead_end"/>
    <node id="11584381702" x="5255.60" y="4115.96" type="priority"/>
    <node id="11584381707" x="4304.72" y="3508.31" type="priority"/>
    <node id="11584381713" x="4340.27" y="3503.21" type="priority"/>
    <node id="11663315370" x="3191.06" y="4061.70" type="dead_end"/>
    <node id="11663315382" x="3048.82" y="4668.60" type="priority"/>
    <node id="11663315385" x="3096.14" y="4679.05" type="priority"/>
    <node id="11663315392" x="3175.34" y="4092.74" type="dead_end"/>
    <node id="11737262209" x="4862.19" y="3337.21" type="priority"/>
    <node id="11737262211" x="4854.88" y="3368.48" type="priority"/>
    <node id="11737262217" x="5040.72" y="3301.06" type="right_before_left"/>
    <node id="11751535864" x="3085.89" y="5161.74" type="priority"/>
    <node id="11751535867" x="3901.57" y="2526.77" type="priority"/>
    <node id="11751570391" x="2008.85" y="4443.63" type="priority"/>
    <node id="11751570393" x="2009.79" y="4428.83" type="priority"/>
    <node id="11802650520" x="3157.35" y="3020.54" type="priority"/>
    <node id="11802650531" x="3321.83" y="3013.13" type="priority"/>
    <node id="11802650533" x="3207.63" y="2890.45" type="dead_end"/>
    <node id="11802650544" x="3186.67" y="3000.02" type="priority"/>
    <node id="12060094324" x="5934.36" y="4118.25" type="right_before_left"/>
    <node id="12060094329" x="6016.85" y="4089.04" type="priority"/>
    <node id="12070293153" x="2249.00" y="6305.43" type="priority"/>
    <node id="12072164207" x="1421.64" y="2162.83" type="priority"/>
    <node id="12072164209" x="1403.75" y="2102.46" type="priority"/>
    <node id="12072164210" x="1410.92" y="2122.07" type="priority"/>
    <node id="12072164211" x="1398.81" y="2125.87" type="priority"/>
    <node id="12072164218" x="1314.14" y="2097.66" type="priority"/>
    <node id="12072164222" x="1337.56" y="2118.67" type="right_before_left"/>
    <node id="1225030672" x="5554.19" y="2631.31" type="priority"/>
    <node id="1225030826" x="2373.64" y="978.26" type="priority"/>
    <node id="1225031015" x="3677.91" y="1872.98" type="right_before_left"/>
    <node id="1225031493" x="6188.40" y="4389.33" type="priority"/>
    <node id="1225032005" x="4209.13" y="3319.68" type="priority"/>
    <node id="1225032290" x="5323.86" y="1837.73" type="priority"/>
    <node id="1225032964" x="4998.03" y="2078.99" type="priority"/>
    <node id="1225033400" x="5538.35" y="1841.29" type="priority"/>
    <node id="1225034276" x="6089.72" y="5445.85" type="priority"/>
    <node id="1225034632" x="5838.54" y="4021.19" type="right_before_left"/>
    <node id="1225035462" x="2523.62" y="1257.34" type="priority"/>
    <node id="1225035779" x="5708.55" y="1764.61" type="priority"/>
    <node id="1225036112" x="5939.00" y="1643.67" type="priority"/>
    <node id="1225036381" x="4006.24" y="6000.89" type="priority"/>
    <node id="1225036746" x="6799.37" y="1509.95" type="dead_end"/>
    <node id="1225036789" x="5674.31" y="2332.22" type="priority"/>
    <node id="1225036885" x="3377.33" y="1198.09" type="priority"/>
    <node id="1225037885" x="5677.92" y="1048.83" type="right_before_left"/>
    <node id="1225038109" x="2745.66" y="1062.51" type="priority"/>
    <node id="1225038229" x="4666.12" y="2302.78" type="priority"/>
    <node id="1225038810" x="4300.55" y="6360.25" type="priority"/>
    <node id="1225039567" x="5133.13" y="1091.42" type="right_before_left"/>
    <node id="1225040101" x="5708.67" y="4127.50" type="priority"/>
    <node id="1225042140" x="5936.85" y="2281.42" type="priority"/>
    <node id="1225042379" x="6683.56" y="1526.19" type="priority"/>
    <node id="1225042428" x="4765.81" y="3032.73" type="priority"/>
    <node id="1225043763" x="5127.90" y="2523.97" type="right_before_left"/>
    <node id="1225044641" x="5041.03" y="2285.29" type="priority"/>
    <node id="1225045672" x="5324.28" y="1966.57" type="priority"/>
    <node id="1225046471" x="5039.94" y="2251.54" type="priority"/>
    <node id="1225047680" x="4229.09" y="5680.16" type="priority"/>
    <node id="1225048038" x="5442.64" y="565.62" type="priority"/>
    <node id="1225048068" x="6471.53" y="728.84" type="priority"/>
    <node id="1225048459" x="5613.60" y="1869.73" type="priority"/>
    <node id="1225048604" x="5924.79" y="1667.96" type="priority"/>
    <node id="1225049153" x="5087.91" y="708.07" type="priority"/>
    <node id="1225049506" x="5456.92" y="1825.36" type="priority"/>
    <node id="1250387108" x="5048.30" y="3298.82" type="right_before_left"/>
    <node id="1329327690" x="2909.81" y="2586.38" type="priority"/>
    <node id="1329327695" x="3068.35" y="2668.08" type="priority"/>
    <node id="1329327696" x="3099.25" y="2676.15" type="priority"/>
    <node id="1329327700" x="2977.28" y="2862.58" type="priority"/>
    <node id="1329327702" x="3051.45" y="2875.60" type="priority"/>
    <node id="1339056708" x="3639.01" y="1654.29" type="priority"/>
    <node id="1396603628" x="3244.70" y="3693.70" type="priority"/>
    <node id="1450930158" x="169.86" y="2164.91" type="priority"/>
    <node id="1450933033" x="572.66" y="2125.99" type="priority"/>
    <node id="1485577904" x="4920.35" y="1369.51" type="priority"/>
    <node id="1485577919" x="4966.59" y="1401.33" type="priority"/>
    <node id="1485577945" x="4954.51" y="1434.59" type="right_before_left"/>
    <node id="1485577948" x="4898.94" y="1446.43" type="priority"/>
    <node id="1485577963" x="4994.75" y="1468.41" type="priority"/>
    <node id="1485577964" x="4959.38" y="1477.52" type="right_before_left"/>
    <node id="1485577985" x="4768.11" y="1504.21" type="right_before_left"/>
    <node id="1485577997" x="4933.32" y="1517.61" type="right_before_left"/>
    <node id="1485578003" x="4743.96" y="1531.13" type="right_before_left"/>
    <node id="1485578013" x="4898.74" y="1532.03" type="priority"/>
    <node id="1485578016" x="5024.29" y="1547.31" type="priority"/>
    <node id="1485578038" x="4931.79" y="1583.88" type="priority"/>
    <node id="1485578071" x="4659.06" y="1642.12" type="right_before_left"/>
    <node id="1485578073" x="4700.05" y="1641.90" type="priority"/>
    <node id="1485578081" x="5099.42" y="1647.65" type="priority"/>
    <node id="1485578106" x="5112.70" y="1669.15" type="priority"/>
    <node id="1485578116" x="5122.38" y="1677.31" type="priority"/>
    <node id="1485578122" x="4987.02" y="1685.63" type="priority"/>
    <node id="1485578129" x="5064.94" y="1698.91" type="priority"/>
    <node id="1485578132" x="4557.68" y="1706.27" type="priority"/>
    <node id="1485578134" x="4950.60" y="1708.89" type="priority"/>
    <node id="1485578137" x="4957.93" y="1709.93" type="priority"/>
    <node id="1485578143" x="5020.89" y="1716.65" type="priority"/>
    <node id="1485578144" x="4949.84" y="1717.85" type="priority"/>
    <node id="1485578152" x="5191.47" y="1721.67" type="priority"/>
    <node id="1485578154" x="5090.34" y="1734.15" type="priority"/>
    <node id="1485578162" x="5110.96" y="1747.56" type="priority"/>
    <node id="1485578168" x="5050.42" y="1764.87" type="priority"/>
    <node id="1485578175" x="4998.28" y="1805.63" type="priority"/>
    <node id="1485578178" x="4934.51" y="1811.72" type="priority"/>
    <node id="1485578194" x="5017.43" y="1839.58" type="priority"/>
    <node id="1485578195" x="4854.12" y="1846.31" type="priority"/>
    <node id="1590006627" x="4910.67" y="2915.23" type="right_before_left"/>
    <node id="1590006653" x="4930.21" y="2953.31" type="priority"/>
    <node id="1590006659" x="4879.74" y="3007.35" type="priority"/>
    <node id="1590019442" x="5304.24" y="2757.71" type="priority"/>
    <node id="1590019451" x="5248.06" y="2779.63" type="priority"/>
    <node id="1590019470" x="5264.23" y="2774.02" type="priority"/>
    <node id="1597819178" x="1688.65" y="10305.63" type="dead_end"/>
    <node id="1751394978" x="3748.16" y="3223.97" type="right_before_left"/>
    <node id="1751394987" x="3727.96" y="3235.58" type="right_before_left"/>
    <node id="1751394990" x="3727.90" y="3258.87" type="priority"/>
    <node id="1751394996" x="3729.63" y="3294.17" type="priority"/>
    <node id="1751395007" x="3535.46" y="3359.43" type="right_before_left"/>
    <node id="1789054556" x="4903.88" y="3029.51" type="priority"/>
    <node id="1789054565" x="4819.46" y="3216.45" type="priority"/>
    <node id="1789054589" x="4887.05" y="3049.77" type="right_before_left"/>
    <node id="1789054613" x="5878.43" y="2526.24" type="priority"/>
    <node id="1801874708" x="0.00" y="3695.91" type="priority"/>
    <node id="1850677497" x="4084.65" y="3088.73" type="right_before_left"/>
    <node id="1850677498" x="4030.67" y="3316.14" type="priority"/>
    <node id="1850677499" x="3542.12" y="3444.27" type="priority"/>
    <node id="1850677502" x="3264.72" y="3485.41" type="priority"/>
    <node id="1850677507" x="3296.86" y="3521.83" type="priority"/>
    <node id="1850677511" x="3276.27" y="3527.46" type="right_before_left"/>
    <node id="1850677530" x="3282.05" y="3548.48" type="priority"/>
    <node id="1850677535" x="3441.21" y="3549.78" type="priority"/>
    <node id="1850677541" x="3447.49" y="3566.84" type="dead_end"/>
    <node id="1850677545" x="3357.22" y="3568.46" type="priority"/>
    <node id="1850677567" x="3361.64" y="3613.83" type="priority"/>
    <node id="1850677570" x="3310.11" y="3612.76" type="priority"/>
    <node id="1850677572" x="3414.86" y="3621.09" type="priority"/>
    <node id="1850677574" x="3417.50" y="3637.51" type="priority"/>
    <node id="1850677575" x="3360.49" y="3654.92" type="priority"/>
    <node id="1850677576" x="3363.28" y="3663.31" type="right_before_left"/>
    <node id="1850677582" x="3376.52" y="3702.95" type="priority"/>
    <node id="1850677589" x="3344.72" y="3748.85" type="priority"/>
    <node id="1850735043" x="3356.82" y="3773.39" type="right_before_left"/>
    <node id="1850735047" x="3297.35" y="3802.17" type="priority"/>
    <node id="1850735057" x="3074.63" y="4167.58" type="right_before_left"/>
    <node id="1850735061" x="3094.59" y="4164.30" type="right_before_left"/>
    <node id="1850735062" x="3095.30" y="4164.88" type="right_before_left"/>
    <node id="1850735072" x="3142.75" y="4176.14" type="right_before_left"/>
    <node id="1850735074" x="3153.40" y="4182.87" type="priority"/>
    <node id="1851422576" x="5217.82" y="1768.90" type="priority"/>
    <node id="1851422579" x="5172.41" y="1788.10" type="priority"/>
    <node id="1851422583" x="5136.03" y="1803.58" type="priority"/>
    <node id="1851422585" x="5190.68" y="1830.82" type="priority"/>
    <node id="1851422644" x="4944.05" y="2026.00" type="priority"/>
    <node id="1851422647" x="4994.89" y="2032.06" type="priority"/>
    <node id="1851422648" x="4972.40" y="2033.82" type="priority"/>
    <node id="1851422686" x="4959.67" y="2044.28" type="priority"/>
    <node id="1851422752" x="4959.31" y="3172.75" type="priority"/>
    <node id="1852010688" x="3451.37" y="3345.80" type="priority"/>
    <node id="1852010689" x="3436.65" y="3380.67" type="right_before_left"/>
    <node id="1852010690" x="3463.05" y="3394.68" type="priority"/>
    <node id="1852010691" x="3433.98" y="3404.15" type="right_before_left"/>
    <node id="1852722503" x="3485.00" y="3511.36" type="dead_end"/>
    <node id="1852722504" x="3436.62" y="3513.38" type="priority"/>
    <node id="1852722519" x="3489.98" y="3518.84" type="dead_end"/>
    <node id="1852722539" x="3288.78" y="3797.76" type="right_before_left"/>
    <node id="1854472777" x="5317.89" y="3908.00" type="right_before_left"/>
    <node id="1854472778" x="5312.29" y="3914.61" type="priority"/>
    <node id="1854472779" x="5307.35" y="3920.30" type="priority"/>
    <node id="1854472784" x="5225.67" y="3927.33" type="priority"/>
    <node id="1854472788" x="5192.47" y="3959.23" type="priority"/>
    <node id="1854472792" x="5292.37" y="3975.25" type="priority"/>
    <node id="1854472799" x="5256.53" y="3992.29" type="priority"/>
    <node id="1854472803" x="5320.41" y="3998.41" type="right_before_left"/>
    <node id="1854472804" x="5297.95" y="4001.09" type="priority"/>
    <node id="1854472805" x="5326.52" y="4001.05" type="right_before_left"/>
    <node id="1854472806" x="5305.72" y="4010.31" type="dead_end"/>
    <node id="1854472807" x="5266.68" y="4015.68" type="priority"/>
    <node id="1854472815" x="5347.01" y="4064.30" type="right_before_left"/>
    <node id="1885067905" x="6184.64" y="2517.57" type="priority"/>
    <node id="1891157625" x="5268.88" y="2782.37" type="priority"/>
    <node id="1891157628" x="5254.77" y="2792.85" type="priority"/>
    <node id="1893447527" x="2620.31" y="2406.72" type="right_before_left"/>
    <node id="1937603289" x="2342.50" y="1926.19" type="priority"/>
    <node id="1937606799" x="385.24" y="3273.72" type="priority"/>
    <node id="2067612752" x="3141.11" y="4101.20" type="dead_end"/>
    <node id="2155994341" x="1319.90" y="3235.21" type="priority"/>
    <node id="2155994351" x="1308.80" y="3224.62" type="priority"/>
    <node id="2234702844" x="4598.13" y="3436.41" type="priority"/>
    <node id="2234702853" x="4591.87" y="3469.14" type="right_before_left"/>
    <node id="2277000937" x="4250.48" y="3516.14" type="priority"/>
    <node id="2296267150" x="4810.54" y="1750.03" type="priority"/>
    <node id="2349278885" x="3861.06" y="3405.55" type="priority"/>
    <node id="2359314869" x="3737.66" y="6119.96" type="priority"/>
    <node id="2383233251" x="4961.20" y="1643.96" type="priority"/>
    <node id="2383233255" x="4990.63" y="1628.59" type="priority"/>
    <node id="2383233256" x="5059.39" y="1613.39" type="priority"/>
    <node id="2383233257" x="4957.93" y="1717.11" type="priority"/>
    <node id="241790193" x="3039.10" y="6169.69" type="priority"/>
    <node id="241790227" x="2829.29" y="5503.32" type="priority"/>
    <node id="241790235" x="2866.39" y="4993.58" type="priority"/>
    <node id="241790236" x="2877.55" y="4857.18" type="priority"/>
    <node id="241790241" x="2917.44" y="4578.23" type="priority"/>
    <node id="241790243" x="2947.68" y="4527.05" type="priority"/>
    <node id="241790299" x="2964.06" y="4343.15" type="traffic_light" tl="GS_241790299"/>
    <node id="241790312" x="2926.76" y="4222.38" type="right_before_left"/>
    <node id="241790315" x="2922.15" y="4143.49" type="priority"/>
    <node id="241790360" x="3191.52" y="3730.87" type="priority"/>
    <node id="241790361" x="3219.47" y="3709.91" type="priority"/>
    <node id="241790367" x="3291.91" y="3657.26" type="priority"/>
    <node id="241790681" x="3312.48" y="3599.74" type="priority"/>
    <node id="241790697" x="3211.81" y="3255.53" type="priority"/>
    <node id="241790707" x="3398.71" y="3158.04" type="priority"/>
    <node id="241791165" x="3093.24" y="937.55" type="priority"/>
    <node id="241791432" x="3221.30" y="1724.00" type="priority"/>
    <node id="241791434" x="3192.15" y="1598.32" type="priority"/>
    <node id="241791441" x="3129.76" y="1337.98" type="priority"/>
    <node id="241793891" x="3276.72" y="1873.42" type="priority"/>
    <node id="248471371" x="6528.18" y="6267.03" type="priority"/>
    <node id="258848121" x="5912.32" y="2537.83" type="priority"/>
    <node id="258848128" x="5268.69" y="2784.82" type="priority"/>
    <node id="258848129" x="5171.64" y="2815.56" type="priority"/>
    <node id="258848135" x="4842.46" y="3056.10" type="priority"/>
    <node id="258848137" x="4851.69" y="3328.84" type="priority"/>
    <node id="258848143" x="4878.82" y="3706.01" type="right_before_left"/>
    <node id="258848145" x="4916.84" y="3821.88" type="right_before_left"/>
    <node id="258848150" x="5016.10" y="4051.98" type="priority"/>
    <node id="258848196" x="5070.50" y="1569.77" type="priority"/>
    <node id="259805081" x="5286.78" y="2847.80" type="priority"/>
    <node id="259805084" x="5253.57" y="2792.35" type="priority"/>
    <node id="259805119" x="5443.49" y="3199.20" type="priority"/>
    <node id="262459775" x="1777.75" y="585.86" type="priority"/>
    <node id="267219135" x="2809.25" y="4134.09" type="priority"/>
    <node id="267219155" x="2317.01" y="4354.06" type="priority"/>
    <node id="267219174" x="1689.64" y="4357.56" type="priority"/>
    <node id="267219194" x="1007.16" y="4219.75" type="priority"/>
    <node id="267219211" x="318.73" y="4198.89" type="priority"/>
    <node id="2721237950" x="3175.13" y="4523.66" type="dead_end"/>
    <node id="2721315989" x="3157.36" y="4447.66" type="priority"/>
    <node id="2721418543" x="3174.46" y="4446.23" type="dead_end"/>
    <node id="2721418560" x="3160.36" y="4448.06" type="dead_end"/>
    <node id="2909970829" x="2967.97" y="2619.33" type="priority"/>
    <node id="3211157432" x="3237.18" y="1773.47" type="priority"/>
    <node id="3223953674" x="6497.78" y="700.18" type="priority"/>
    <node id="3432241187" x="3544.82" y="1683.03" type="right_before_left"/>
    <node id="3432241188" x="4471.59" y="1684.56" type="priority"/>
    <node id="343596103" x="444.74" y="1224.19" type="priority"/>
    <node id="3501595608" x="444.45" y="1466.37" type="priority"/>
    <node id="3596285786" x="2947.35" y="6371.61" type="priority"/>
    <node id="3596746316" x="2740.80" y="5892.33" type="right_before_left"/>
    <node id="3596746325" x="2801.70" y="5776.62" type="priority"/>
    <node id="3617590789" x="2035.52" y="6615.95" type="priority"/>
    <node id="370504753" x="3110.17" y="3975.38" type="traffic_light" tl="370504753"/>
    <node id="370505317" x="3084.76" y="4021.46" type="priority"/>
    <node id="370505319" x="3170.31" y="3808.33" type="priority"/>
    <node id="370505320" x="3250.12" y="3832.17" type="priority"/>
    <node id="370507252" x="2496.31" y="4038.25" type="priority"/>
    <node id="370507258" x="2792.98" y="4168.94" type="priority"/>
    <node id="370507263" x="2516.73" y="4368.24" type="priority"/>
    <node id="370507266" x="2395.65" y="4521.38" type="priority"/>
    <node id="370507268" x="2727.03" y="4414.50" type="priority"/>
    <node id="370507271" x="2868.46" y="4265.76" type="priority"/>
    <node id="370507278" x="2833.17" y="4204.30" type="priority"/>
    <node id="370507861" x="2928.00" y="4442.61" type="priority"/>
    <node id="370507872" x="2791.96" y="4469.62" type="right_before_left"/>
    <node id="3811336557" x="3117.92" y="4037.54" type="priority"/>
    <node id="3811336561" x="3105.27" y="4028.42" type="priority"/>
    <node id="3811336563" x="3182.17" y="4128.29" type="priority"/>
    <node id="3811336568" x="3087.20" y="4016.85" type="traffic_light" tl="3811336568"/>
    <node id="3812321507" x="600.24" y="1878.43" type="priority"/>
    <node id="3812321508" x="482.30" y="1909.89" type="priority"/>
    <node id="3830088602" x="5321.70" y="1431.88" type="priority"/>
    <node id="3830088785" x="5908.29" y="2219.48" type="priority"/>
    <node id="3830088810" x="6064.22" y="2508.19" type="priority"/>
    <node id="3830088909" x="5662.03" y="3619.17" type="priority"/>
    <node id="4020717944" x="3132.17" y="2426.97" type="priority"/>
    <node id="4020717947" x="3096.25" y="2433.33" type="priority"/>
    <node id="4020717957" x="3176.59" y="2475.66" type="priority"/>
    <node id="4020717958" x="3140.85" y="2488.07" type="priority"/>
    <node id="4020717959" x="3098.91" y="2494.14" type="priority"/>
    <node id="4020717963" x="3150.62" y="2556.78" type="priority"/>
    <node id="4020717967" x="3157.90" y="2613.11" type="priority"/>
    <node id="4020717968" x="3119.02" y="2614.42" type="priority"/>
    <node id="4020717972" x="3162.47" y="2673.45" type="priority"/>
    <node id="4020717974" x="3155.11" y="2723.62" type="priority"/>
    <node id="4023125803" x="5082.37" y="3883.67" type="priority"/>
    <node id="4023125805" x="5073.35" y="3951.62" type="right_before_left"/>
    <node id="4023125808" x="4331.46" y="4087.08" type="priority"/>
    <node id="4023125815" x="4469.48" y="4248.59" type="priority"/>
    <node id="4023125816" x="4659.22" y="4247.80" type="priority"/>
    <node id="4023125827" x="4621.42" y="4293.96" type="priority"/>
    <node id="4023125832" x="4529.51" y="4303.01" type="priority"/>
    <node id="4023125836" x="4852.05" y="4302.77" type="priority"/>
    <node id="4023125842" x="4882.95" y="4311.38" type="priority"/>
    <node id="4023125844" x="4381.95" y="4325.27" type="priority"/>
    <node id="4023125847" x="4955.51" y="4325.78" type="priority"/>
    <node id="4023125858" x="4603.20" y="4371.40" type="priority"/>
    <node id="4023125873" x="5097.45" y="4449.41" type="priority"/>
    <node id="4023125879" x="5154.13" y="4535.92" type="priority"/>
    <node id="4023125882" x="5213.25" y="4564.58" type="priority"/>
    <node id="4023125885" x="5230.34" y="4589.41" type="right_before_left"/>
    <node id="4023126408" x="5239.61" y="4705.31" type="priority"/>
    <node id="4023126410" x="5163.95" y="4729.27" type="priority"/>
    <node id="4023126433" x="4958.81" y="4896.00" type="priority"/>
    <node id="4023126434" x="5388.37" y="4896.04" type="priority"/>
    <node id="4023126436" x="5460.68" y="5045.43" type="priority"/>
    <node id="4023126441" x="5479.43" y="5085.70" type="priority"/>
    <node id="4023126442" x="4993.51" y="5120.36" type="priority"/>
    <node id="4023126446" x="5509.17" y="5169.64" type="priority"/>
    <node id="4023126450" x="5077.11" y="5195.40" type="priority"/>