<?xml version="1.0" encoding="UTF-8"?>

<!-- generated on 2025-04-09 04:04:00 by Eclipse SUMO netconvert Version 1.19.0
<configuration xmlns:xsi="http://www.w3.org/2001/XMLSchema-instance" xsi:noNamespaceSchemaLocation="http://sumo.dlr.de/xsd/netconvertConfiguration.xsd">

    <input>
        <sumo-net-file value="beynes/beynes.net.xml"/>
    </input>

    <output>
        <plain-output-prefix value="beynes/beynes"/>
    </output>

    <processing>
        <geometry.min-radius.fix.railways value="false"/>
        <geometry.max-grade.fix value="false"/>
        <offset.disable-normalization value="true"/>
        <lefthand value="0"/>
    </processing>

    <tls_building>
        <tls.ignore-internal-junction-jam value="1"/>
    </tls_building>

    <junctions>
        <no-turnarounds value="true"/>
        <junctions.corner-detail value="5"/>
        <junctions.limit-turn-speed value="5.50"/>
        <rectangular-lane-cut value="0"/>
    </junctions>

    <pedestrian>
        <walkingareas value="0"/>
    </pedestrian>

</configuration>
-->

<nodes version="1.16" xmlns:xsi="http://www.w3.org/2001/XMLSchema-instance" xsi:noNamespaceSchemaLocation="http://sumo.dlr.de/xsd/nodes_file.xsd">
    <location netOffset="-414361.09,-5407699.82" convBoundary="0.00,0.00,6799.37,10594.52" origBoundary="1.586301,48.806252,2.067132,48.911896" projParameter="+proj=utm +zone=31 +ellps=WGS84 +datum=WGS84 +units=m +no_defs"/>

    <node id="10211724710" x="3134.91" y="4378.17" type="dead_end"/>
    <node id="10211724712" x="3125.59" y="4450.68" type="dead_end"/>
    <node id="10211724715" x="3126.09" y="4331.00" type="dead_end"/>
    <node id="10211724716" x="3123.04" y="4334.88" type="priority"/>
    <node id="10211731917" x="3140.80" y="4348.51" type="priority"/>
    <node id="10211731934" x="3013.67" y="4866.06" type="priority"/>
    <node id="10211731936" x="3041.37" y="4886.12" type="priority"/>
    <node id="10211731942" x="3147.77" y="4733.37" type="right_before_left"/>
    <node id="10211731947" x="3217.58" y="4656.94" type="priority"/>
    <node id="10211731957" x="3185.82" y="4739.03" type="dead_end"/>
    <node id="10211731973" x="3134.24" y="4877.38" type="priority"/>
    <node id="10211731975" x="3146.36" y="4877.99" type="dead_end"/>
    <node id="10211731986" x="3177.55" y="4812.68" type="dead_end"/>
    <node id="10211731988" x="3181.80" y="4774.68" type="dead_end"/>
    <node id="10211731992" x="3176.05" y="4820.92" type="dead_end"/>
    <node id="10211731995" x="3175.64" y="4822.88" type="dead_end"/>
    <node id="10211731996" x="3154.26" y="4818.83" type="dead_end"/>
    <node id="10211731997" x="3156.42" y="4807.14" type="dead_end"/>
    <node id="10211731998" x="3154.60" y="4817.01" type="dead_end"/>
    <node id="10211732002" x="3159.22" y="4807.66" type="dead_end"/>
    <node id="10211732022" x="3169.75" y="4741.56" type="dead_end"/>
    <node id="10211732024" x="3173.11" y="4733.09" type="dead_end"/>
    <node id="10211732025" x="3172.01" y="4739.07" type="dead_end"/>
    <node id="10211732026" x="3175.49" y="4720.34" type="dead_end"/>
    <node id="10211732027" x="3173.83" y="4733.22" type="dead_end"/>
    <node id="10272963606" x="3834.65" y="3442.90" type="right_before_left"/>
    <node id="10763902447" x="5320.87" y="4223.75" type="dead_end"/>
    <node id="10763902448" x="5316.07" y="4224.65" type="priority"/>
    <node id="10763902449" x="5310.41" y="4225.67" type="priority"/>
    <node id="10763902450" x="5304.36" y="4226.66" type="priority"/>
    <node id="10763902451" x="5301.91" y="4227.10" type="dead_end"/>
    <node id="10763902454" x="5309.77" y="4303.09" type="dead_end"/>
    <node id="10763902457" x="5205.48" y="4233.83" type="right_before_left"/>
    <node id="10763902459" x="5194.79" y="4223.46" type="dead_end"/>
    <node id="10814513851" x="4601.80" y="4013.85" type="priority"/>
    <node id="10814513859" x="3260.31" y="3715.62" type="priority"/>
    <node id="10814513865" x="3250.41" y="3684.88" type="priority"/>
    <node id="10822663471" x="2979.14" y="4213.15" type="priority"/>
    <node id="10823888514" x="5158.97" y="2108.90" type="priority"/>
    <node id="10845592140" x="2127.74" y="4730.45" type="priority"/>
    <node id="10931253833" x="4363.56" y="4983.10" type="priority"/>
    <node id="10931253834" x="4372.78" y="4906.45" type="right_before_left"/>
    <node id="10931253847" x="4169.29" y="5216.55" type="right_before_left"/>
    <node id="10931253860" x="3832.61" y="5452.75" type="right_before_left"/>
    <node id="10931253885" x="4524.21" y="5332.19" type="right_before_left"/>
    <node id="10931253888" x="4620.75" y="5279.44" type="right_before_left"/>
    <node id="10931253893" x="4683.90" y="5377.74" type="right_before_left"/>
    <node id="10931253899" x="4503.17" y="4954.65" type="priority"/>
    <node id="10931261436" x="5165.14" y="5426.17" type="right_before_left"/>
    <node id="10931261437" x="5150.48" y="5364.88" type="priority"/>
    <node id="10931261453" x="5498.97" y="5416.84" type="priority"/>
    <node id="10931261458" x="5564.03" y="5490.77" type="right_before_left"/>
    <node id="10931261459" x="5142.53" y="5437.77" type="right_before_left"/>
    <node id="10931261461" x="5200.07" y="5523.17" type="right_before_left"/>
    <node id="10931261462" x="5228.53" y="5563.03" type="priority"/>
    <node id="10931261463" x="5112.29" y="5517.18" type="right_before_left"/>
    <node id="10931261466" x="5218.92" y="5549.58" type="right_before_left"/>
    <node id="10931261467" x="5062.70" y="5471.59" type="priority"/>
    <node id="10931261475" x="4736.29" y="5461.45" type="right_before_left"/>
    <node id="10931414392" x="5209.68" y="5429.96" type="right_before_left"/>
    <node id="10931414393" x="5218.19" y="5464.24" type="right_before_left"/>
    <node id="10931414400" x="5250.90" y="5511.88" type="right_before_left"/>
    <node id="10931414403" x="5215.70" y="5522.98" type="right_before_left"/>
    <node id="10931723642" x="2831.48" y="5995.55" type="priority"/>
    <node id="10931723650" x="2820.91" y="6062.67" type="priority"/>
    <node id="10974836028" x="3450.49" y="3851.76" type="priority"/>
    <node id="10974836031" x="3510.14" y="3812.15" type="priority"/>
    <node id="10974836032" x="3513.26" y="3809.66" type="dead_end"/>
    <node id="10974836034" x="3517.56" y="3817.80" type="priority"/>
    <node id="10974836039" x="3527.19" y="3825.50" type="priority"/>
    <node id="10974836040" x="3531.05" y="3822.12" type="priority"/>
    <node id="10974836041" x="3509.13" y="3803.85" type="priority"/>
    <node id="10974836043" x="3505.90" y="3795.34" type="dead_end"/>
    <node id="10974836045" x="3519.56" y="3810.41" type="priority"/>
    <node id="10974836046" x="3515.48" y="3812.92" type="dead_end"/>
    <node id="10974836049" x="3434.19" y="3876.12" type="priority"/>
    <node id="10974836051" x="3422.78" y="3876.97" type="dead_end"/>
    <node id="11005831281" x="2906.48" y="2870.41" type="priority"/>
    <node id="11005834817" x="2606.39" y="2734.99" type="priority"/>
    <node id="11030251060" x="5527.10" y="2390.31" type="priority"/>
    <node id="11030251068" x="5461.60" y="2319.62" type="priority"/>
    <node id="11030251073" x="5522.37" y="2372.45" type="right_before_left"/>
    <node id="11048178527" x="2540.05" y="6392.32" type="priority"/>
    <node id="11048178534" x="3344.65" y="6267.71" type="priority"/>
    <node id="1106397320" x="4119.28" y="1836.37" type="priority"/>
    <node id="1106397368" x="2731.72" y="1328.66" type="priority"/>
    <node id="1106397413" x="2832.56" y="1461.34" type="priority"/>
    <node id="1106397448" x="2997.49" y="1919.93" type="priority"/>
    <node id="11196406067" x="489.12" y="2684.03" type="priority"/>
    <node id="11212476565" x="3221.41" y="4302.86" type="right_before_left"/>
    <node id="11212476568" x="3250.13" y="4263.54" type="dead_end"/>
    <node id="11248772069" x="6154.15" y="6438.50" type="priority"/>
    <node id="11270058862" x="3683.29" y="3781.03" type="priority"/>
    <node id="11299443927" x="3153.09" y="6466.50" type="priority"/>
    <node id="11500786396" x="2970.25" y="4508.03" type="dead_end"/>
    <node id="11550046509" x="624.21" y="2901.08" type="priority"/>
    <node id="11550046510" x="620.50" y="2895.94" type="priority"/>
    <node id="11550046511" x="629.60" y="2889.06" type="priority"/>
    <node id="11550046512" x="633.49" y="2894.04" type="priority"/>
    <node id="11550046520" x="543.73" y="2955.85" type="priority"/>
    <node id="11550046521" x="716.74" y="2825.36" type="priority"/>
    <node id="11550046536" x="350.47" y="3101.44" type="priority"/>
    <node id="11570040568" x="3198.55" y="4285.39" type="right_before_left"/>
    <node id="11570087369" x="3183.21" y="4304.32" type="priority"/>
    <node id="11570087371" x="5279.54" y="4453.46" type="right_before_left"/>
    <node id="11570087373" x="5271.68" y="4469.08" type="dead_end"/>
    <node id="11584381683" x="3176.77" y="4314.86" type="dead_end"/>
    <node id="11584381690" x="3026.54" y="4329.26" type="priority"/>
    <node id="11584381691" x="3006.89" y="4321.25" type="priority"/>
    <node id="11584381698" x="4551.78" y="3805.59" type="right_before_left"/>
    <node id="11584381699" x="4545.53" y="3782.92" type="priority"/>
    <node id="11584381700" x="4871.45" y="3759.75" type="priority"/>
    <node id="11584381701" x="5247.31" y="4407.10" type="dead_end"/>
    <node id="11584381702" x="5255.60" y="4403.05" type="priority"/>
    <node id="11584381707" x="4304.72" y="3795.41" type="priority"/>
    <node id="11584381713" x="4340.27" y="3790.31" type="priority"/>
    <node id="11663315370" x="3191.06" y="4348.80" type="dead_end"/>
    <node id="11663315382" x="3048.82" y="4955.70" type="priority"/>
    <node id="11663315385" x="3096.14" y="4966.15" type="priority"/>
    <node id="11663315392" x="3175.34" y="4379.84" type="dead_end"/>
    <node id="11711679529" x="4796.70" y="3412.24" type="priority"/>
    <node id="11737262209" x="4862.19" y="3624.30" type="priority"/>
    <node id="11737262211" x="4854.88" y="3655.58" type="priority"/>
    <node id="11737262217" x="5040.72" y="3588.16" type="right_before_left"/>
    <node id="11751535864" x="3085.89" y="5448.84" type="priority"/>
    <node id="11751535867" x="3901.57" y="2813.87" type="priority"/>
    <node id="11751570391" x="2008.85" y="4730.73" type="priority"/>
    <node id="11751570393" x="2009.79" y="4715.93" type="priority"/>
    <node id="11802650520" x="3157.35" y="3307.64" type="priority"/>
    <node id="11802650531" x="3321.83" y="3300.23" type="priority"/>
    <node id="11802650533" x="3207.63" y="3177.54" type="dead_end"/>
    <node id="11802650544" x="3186.67" y="3287.11" type="priority"/>
    <node id="12060094324" x="5934.36" y="4405.35" type="right_before_left"/>
    <node id="12060094329" x="6016.85" y="4376.14" type="priority"/>
    <node id="12070293152" x="2264.03" y="6563.79" type="right_before_left"/>
    <node id="12070293153" x="2249.00" y="6592.52" type="right_before_left"/>
    <node id="12070293155" x="2197.14" y="6564.35" type="priority"/>
    <node id="12072164207" x="1421.64" y="2449.93" type="priority"/>
    <node id="12072164209" x="1403.75" y="2389.56" type="priority"/>
    <node id="12072164210" x="1410.92" y="2409.17" type="priority"/>
    <node id="12072164211" x="1398.81" y="2412.97" type="priority"/>
    <node id="12072164218" x="1314.14" y="2384.76" type="priority"/>
    <node id="12072164222" x="1337.56" y="2405.76" type="right_before_left"/>
    <node id="1225030672" x="5554.19" y="2918.41" type="priority"/>
    <node id="1225030826" x="2373.64" y="1265.36" type="priority"/>
    <node id="1225031015" x="3677.91" y="2160.07" type="right_before_left"/>
    <node id="1225031493" x="6188.40" y="4676.42" type="priority"/>
    <node id="1225032005" x="4209.13" y="3606.78" type="priority"/>
    <node id="1225032290" x="5323.86" y="2124.83" type="priority"/>
    <node id="1225032964" x="4998.03" y="2366.09" type="priority"/>
    <node id="1225033352" x="4152.55" y="6682.33" type="priority"/>
    <node id="1225033400" x="5538.35" y="2128.38" type="priority"/>
    <node id="1225034276" x="6089.72" y="5732.95" type="priority"/>
    <node id="1225034632" x="5838.54" y="4308.29" type="right_before_left"/>
    <node id="1225035462" x="2523.62" y="1544.43" type="priority"/>
    <node id="1225035779" x="5708.55" y="2051.71" type="priority"/>
    <node id="1225035890" x="161.67" y="0.00" type="priority"/>
    <node id="1225036112" x="5939.00" y="1930.76" type="priority"/>
    <node id="1225036381" x="4006.24" y="6287.99" type="priority"/>
    <node id="1225036640" x="4999.25" y="1358.98" type="priority"/>
    <node id="1225036746" x="6799.37" y="1797.05" type="dead_end"/>
    <node id="1225036789" x="5674.31" y="2619.32" type="priority"/>
    <node id="1225036885" x="3377.33" y="1485.19" type="priority"/>
    <node id="1225037885" x="5677.92" y="1335.92" type="right_before_left"/>
    <node id="1225038109" x="2745.66" y="1349.61" type="priority"/>
    <node id="1225038229" x="4666.12" y="2589.88" type="priority"/>
    <node id="1225038810" x="4300.55" y="6647.35" type="priority"/>
    <node id="1225039567" x="5133.13" y="1378.52" type="right_before_left"/>
    <node id="1225040101" x="5708.67" y="4414.60" type="priority"/>
    <node id="1225042140" x="5936.85" y="2568.51" type="priority"/>
    <node id="1225042379" x="6683.56" y="1813.29" type="priority"/>
    <node id="1225042428" x="4765.81" y="3319.83" type="priority"/>
    <node id="1225043763" x="5127.90" y="2811.07" type="right_before_left"/>
    <node id="1225044641" x="5041.03" y="2572.39" type="priority"/>
    <node id="1225045672" x="5324.28" y="2253.67" type="priority"/>
    <node id="1225046471" x="5039.94" y="2538.64" type="priority"/>
    <node id="1225047680" x="4229.09" y="5967.25" type="priority"/>
    <node id="1225048038" x="5442.64" y="852.72" type="priority"/>
    <node id="1225048068" x="6471.53" y="1015.93" type="priority"/>
    <node id="1225048459" x="5613.60" y="2156.82" type="priority"/>
    <node id="1225048604" x="5924.79" y="1955.06" type="priority"/>
    <node id="1225049153" x="5087.91" y="995.17" type="priority"/>
    <node id="1225049506" x="5456.92" y="2112.45" type="priority"/>
    <node id="1250387108" x="5048.30" y="3585.91" type="right_before_left"/>
    <node id="1250387112" x="4821.34" y="1871.99" type="priority"/>
    <node id="1313123195" x="5931.67" y="1916.76" type="rail_crossing"/>
    <node id="1329327690" x="2909.81" y="2873.48" type="priority"/>
    <node id="1329327695" x="3068.35" y="2955.18" type="priority"/>
    <node id="1329327696" x="3099.25" y="2963.25" type="priority"/>
    <node id="1329327700" x="2977.28" y="3149.67" type="priority"/>
    <node id="1329327702" x="3051.45" y="3162.70" type="priority"/>
    <node id="1339056708" x="3639.01" y="1941.39" type="priority"/>
    <node id="1396603620" x="5317.99" y="2242.30" type="rail_crossing"/>
    <node id="1396603621" x="5001.37" y="2374.80" type="rail_crossing"/>
    <node id="1396603622" x="5002.77" y="2378.33" type="rail_crossing"/>
    <node id="1396603628" x="3244.70" y="3980.80" type="priority"/>
    <node id="1450930158" x="169.86" y="2452.00" type="priority"/>
    <node id="1450933033" x="572.66" y="2413.08" type="priority"/>
    <node id="1485577904" x="4920.35" y="1656.61" type="priority"/>
    <node id="1485577913" x="4883.08" y="1675.30" type="priority"/>
    <node id="1485577919" x="4966.59" y="1688.43" type="priority"/>
    <node id="1485577922" x="4913.27" y="1688.58" type="right_before_left"/>
    <node id="1485577923" x="4921.48" y="1693.14" type="right_before_left"/>
    <node id="1485577945" x="4954.51" y="1721.69" type="right_before_left"/>
    <node id="1485577948" x="4898.94" y="1733.52" type="priority"/>
    <node id="1485577963" x="4994.75" y="1755.51" type="priority"/>
    <node id="1485577964" x="4959.38" y="1764.61" type="right_before_left"/>
    <node id="1485577985" x="4768.11" y="1791.31" type="right_before_left"/>
    <node id="1485577997" x="4933.32" y="1804.71" type="right_before_left"/>
    <node id="1485578003" x="4743.96" y="1818.23" type="right_before_left"/>
    <node id="1485578013" x="4898.74" y="1819.12" type="priority"/>
    <node id="1485578016" x="5024.29" y="1834.41" type="priority"/>
    <node id="1485578024" x="4964.00" y="1850.93" type="right_before_left"/>
    <node id="1485578029" x="4968.60" y="1855.22" type="right_before_left"/>
    <node id="1485578038" x="4931.79" y="1870.98" type="priority"/>
    <node id="1485578071" x="4659.06" y="1929.22" type="right_before_left"/>
    <node id="1485578073" x="4700.05" y="1928.99" type="priority"/>
    <node id="1485578081" x="5099.42" y="1934.75" type="priority"/>
    <node id="1485578094" x="5000.52" y="1948.76" type="priority"/>
    <node id="1485578096" x="5017.81" y="1946.59" type="priority"/>
    <node id="1485578106" x="5112.70" y="1956.25" type="priority"/>
    <node id="1485578116" x="5122.38" y="1964.40" type="priority"/>
    <node id="1485578122" x="4987.02" y="1972.73" type="priority"/>
    <node id="1485578129" x="5064.94" y="1986.01" type="priority"/>
    <node id="1485578132" x="4557.68" y="1993.36" type="priority"/>
    <node id="1485578134" x="4950.60" y="1995.99" type="priority"/>
    <node id="1485578137" x="4957.93" y="1997.03" type="priority"/>
    <node id="1485578143" x="5020.89" y="2003.75" type="priority"/>
    <node id="1485578144" x="4949.84" y="2004.95" type="priority"/>
    <node id="1485578152" x="5191.47" y="2008.77" type="priority"/>
    <node id="1485578154" x="5090.34" y="2021.25" type="priority"/>
    <node id="1485578162" x="5110.96" y="2034.66" type="priority"/>
    <node id="1485578168" x="5050.42" y="2051.96" type="priority"/>
    <node id="1485578175" x="4998.28" y="2092.73" type="priority"/>
    <node id="1485578178" x="4934.51" y="2098.82" type="priority"/>
    <node id="1485578194" x="5017.43" y="2126.68" type="priority"/>
    <node id="1485578195" x="4854.12" y="2133.41" type="priority"/>
    <node id="1590006627" x="4910.67" y="3202.33" type="right_before_left"/>
    <node id="1590006653" x="4930.21" y="3240.41" type="priority"/>
    <node id="1590006659" x="4879.74" y="3294.45" type="priority"/>
    <node id="1590019442" x="5304.24" y="3044.81" type="priority"/>
    <node id="1590019451" x="5248.06" y="3066.72" type="priority"/>
    <node id="1590019470" x="5264.23" y="3061.12" type="priority"/>
    <node id="1597819178" x="1688.65" y="10592.72" type="dead_end"/>
    <node id="1751394978" x="3748.16" y="3511.07" type="right_before_left"/>
    <node id="1751394987" x="3727.96" y="3522.68" type="right_before_left"/>
    <node id="1751394990" x="3727.90" y="3545.96" type="priority"/>
    <node id="1751394996" x="3729.63" y="3581.27" type="priority"/>
    <node id="1751395007" x="3535.46" y="3646.53" type="right_before_left"/>
    <node id="1789054556" x="4903.88" y="3316.60" type="priority"/>
    <node id="1789054563" x="4799.09" y="3436.73" type="priority"/>
    <node id="1789054565" x="4819.46" y="3503.54" type="priority"/>
    <node id="1789054589" x="4887.05" y="3336.87" type="right_before_left"/>
    <node id="1789054613" x="5878.43" y="2813.34" type="priority"/>
    <node id="1801874708" x="0.00" y="3983.00" type="priority"/>
    <node id="1850677497" x="4084.65" y="3375.83" type="right_before_left"/>
    <node id="1850677498" x="4030.67" y="3603.23" type="priority"/>
    <node id="1850677499" x="3542.12" y="3731.37" type="priority"/>
    <node id="1850677502" x="3264.72" y="3772.51" type="priority"/>
    <node id="1850677507" x="3296.86" y="3808.93" type="priority"/>
    <node id="1850677508" x="3504.68" y="3806.70" type="right_before_left"/>
    <node id="1850677511" x="3276.27" y="3814.56" type="right_before_left"/>
    <node id="1850677517" x="3513.59" y="3820.46" type="right_before_left"/>
    <node id="1850677530" x="3282.05" y="3835.58" type="priority"/>
    <node id="1850677535" x="3441.21" y="3836.88" type="priority"/>
    <node id="1850677541" x="3447.49" y="3853.94" type="dead_end"/>
    <node id="1850677545" x="3357.22" y="3855.56" type="priority"/>
    <node id="1850677567" x="3361.64" y="3900.92" type="priority"/>
    <node id="1850677570" x="3310.11" y="3899.86" type="priority"/>
    <node id="1850677572" x="3414.86" y="3908.19" type="priority"/>
    <node id="1850677574" x="3417.50" y="3924.60" type="priority"/>
    <node id="1850677575" x="3360.49" y="3942.02" type="priority"/>
    <node id="1850677576" x="3363.28" y="3950.41" type="right_before_left"/>
    <node id="1850677582" x="3376.52" y="3990.05" type="priority"/>
    <node id="1850677589" x="3344.72" y="4035.95" type="priority"/>
    <node id="1850735043" x="3356.82" y="4060.49" type="right_before_left"/>
    <node id="1850735047" x="3297.35" y="4089.27" type="priority"/>
    <node id="1850735057" x="3074.63" y="4454.68" type="right_before_left"/>
    <node id="1850735061" x="3094.59" y="4451.40" type="right_before_left"/>
    <node id="1850735062" x="3095.30" y="4451.98" type="right_before_left"/>
    <node id="1850735072" x="3142.75" y="4463.24" type="right_before_left"/>
    <node id="1850735074" x="3153.40" y="4469.97" type="priority"/>
    <node id="1851422576" x="5217.82" y="2056.00" type="priority"/>
    <node id="1851422579" x="5172.41" y="2075.20" type="priority"/>
    <node id="1851422583" x="5136.03" y="2090.68" type="priority"/>
    <node id="1851422585" x="5190.68" y="2117.92" type="priority"/>
    <node id="1851422644" x="4944.05" y="2313.10" type="priority"/>
    <node id="1851422647" x="4994.89" y="2319.16" type="priority"/>
    <node id="1851422648" x="4972.40" y="2320.92" type="priority"/>
    <node id="1851422686" x="4959.67" y="2331.37" type="priority"/>
    <node id="1851422752" x="4959.31" y="3459.85" type="priority"/>
    <node id="1852010688" x="3451.37" y="3632.89" type="priority"/>
    <node id="1852010689" x="3436.65" y="3667.77" type="right_before_left"/>
    <node id="1852010690" x="3463.05" y="3681.78" type="priority"/>
    <node id="1852010691" x="3433.98" y="3691.24" type="right_before_left"/>
    <node id="1852010693" x="3395.54" y="3738.36" type="priority"/>
    <node id="1852722503" x="3485.00" y="3798.46" type="dead_end"/>
    <node id="1852722504" x="3436.62" y="3800.47" type="priority"/>
    <node id="1852722519" x="3489.98" y="3805.94" type="dead_end"/>
    <node id="1852722532" x="3244.08" y="3998.43" type="right_before_left"/>
    <node id="1852722539" x="3288.78" y="4084.86" type="right_before_left"/>
    <node id="1854472777" x="5317.89" y="4195.10" type="right_before_left"/>
    <node id="1854472778" x="5312.29" y="4201.71" type="priority"/>
    <node id="1854472779" x="5307.35" y="4207.39" type="priority"/>
    <node id="1854472784" x="5225.67" y="4214.43" type="priority"/>
    <node id="1854472788" x="5192.47" y="4246.33" type="priority"/>
    <node id="1854472792" x="5292.37" y="4262.34" type="priority"/>
    <node id="1854472799" x="5256.53" y="4279.38" type="priority"/>
    <node id="1854472803" x="5320.41" y="4285.51" type="right_before_left"/>
    <node id="1854472804" x="5297.95" y="4288.19" type="priority"/>
    <node id="1854472805" x="5326.52" y="4288.15" type="right_before_left"/>
    <node id="1854472806" x="5305.72" y="4297.41" type="dead_end"/>
    <node id="1854472807" x="5266.68" y="4302.77" type="priority"/>
    <node id="1854472815" x="5347.01" y="4351.39" type="right_before_left"/>
    <node id="1885067905" x="6184.64" y="2804.67" type="priority"/>
    <node id="1891157625" x="5268.88" y="3069.47" type="priority"/>
    <node id="1891157628" x="5254.77" y="3079.95" type="priority"/>
    <node id="1893447527" x="2620.31" y="2693.81" type="right_before_left"/>
    <node id="1893447532" x="2600.50" y="2734.13" type="priority"/>
    <node id="1936789323" x="279.88" y="1659.19" type="priority"/>
    <node id="1937603193" x="1401.29" y="1927.10" type="priority"/>
    <node id="1937603289" x="2342.50" y="2213.29" type="priority"/>
    <node id="1937603305" x="2307.51" y="2217.98" type="right_before_left"/>
    <node id="1937606799" x="385.24" y="3560.82" type="priority"/>
    <node id="2025509201" x="3370.52" y="4081.41" type="priority"/>
    <node id="2067612752" x="3141.11" y="4388.29" type="dead_end"/>
    <node id="2155994341" x="1319.90" y="3522.30" type="priority"/>
    <node id="2155994351" x="1308.80" y="3511.72" type="priority"/>
    <node id="2234702784" x="4569.37" y="3741.59" type="priority"/>
    <node id="2234702790" x="4571.41" y="3758.77" type="priority"/>
    <node id="2234702844" x="4598.13" y="3723.51" type="priority"/>
    <node id="2234702853" x="4591.87" y="3756.24" type="right_before_left"/>
    <node id="2277000937" x="4250.48" y="3803.23" type="priority"/>
    <node id="2296267150" x="4810.54" y="2037.13" type="priority"/>
    <node id="2349278885" x="3861.06" y="3692.65" type="priority"/>
    <node id="2349284417" x="3242.91" y="3982.04" type="priority"/>
    <node id="2359314869" x="3737.66" y="6407.05" type="priority"/>
    <node id="2383233251" x="4961.20" y="1931.06" type="priority"/>
    <node id="2383233255" x="4990.63" y="1915.68" type="priority"/>
    <node id="2383233256" x="5059.39" y="1900.49" type="priority"/>
    <node id="2383233257" x="4957.93" y="2004.21" type="priority"/>
    <node id="241790183" x="2740.70" y="7390.80" type="priority"/>
    <node id="241790227" x="2829.29" y="5790.42" type="priority"/>
    <node id="241790235" x="2866.39" y="5280.68" type="priority"/>
    <node id="241790236" x="2877.55" y="5144.28" type="priority"/>
    <node id="241790241" x="2917.44" y="4865.33" type="priority"/>
    <node id="241790243" x="2947.68" y="4814.15" type="priority"/>
    <node id="241790299" x="2964.06" y="4630.25" type="traffic_light" tl="GS_241790299"/>
    <node id="241790309" x="2928.96" y="4555.00" type="priority"/>
    <node id="241790312" x="2926.76" y="4509.48" type="right_before_left"/>
    <node id="241790315" x="2922.15" y="4430.58" type="priority"/>
    <node id="241790320" x="2957.46" y="4414.53" type="priority"/>
    <node id="241790321" x="2970.51" y="4408.84" type="priority"/>
    <node id="241790360" x="3191.52" y="4017.96" type="priority"/>
    <node id="241790361" x="3219.47" y="3997.00" type="priority"/>
    <node id="241790367" x="3291.91" y="3944.36" type="priority"/>
    <node id="241790681" x="3312.48" y="3886.84" type="priority"/>
    <node id="241790697" x="3211.81" y="3542.63" type="priority"/>
    <node id="241790707" x="3398.71" y="3445.13" type="priority"/>
    <node id="241791165" x="3093.24" y="1224.65" type="priority"/>
    <node id="241791424" x="3387.26" y="2462.97" type="priority"/>
    <node id="241791432" x="3221.30" y="2011.09" type="priority"/>
    <node id="241791434" x="3192.15" y="1885.42" type="priority"/>
    <node id="241791441" x="3129.76" y="1625.08" type="priority"/>
    <node id="241793891" x="3276.72" y="2160.52" type="priority"/>
    <node id="248471371" x="6528.18" y="6554.12" type="priority"/>
    <node id="258848121" x="5912.32" y="2824.93" type="priority"/>
    <node id="258848128" x="5268.69" y="3071.92" type="priority"/>
    <node id="258848129" x="5171.64" y="3102.66" type="priority"/>
    <node id="258848135" x="4842.46" y="3343.20" type="priority"/>
    <node id="258848136" x="4784.25" y="3431.33" type="priority"/>
    <node id="258848137" x="4851.69" y="3615.94" type="priority"/>
    <node id="258848143" x="4878.82" y="3993.10" type="right_before_left"/>
    <node id="258848145" x="4916.84" y="4108.97" type="right_before_left"/>
    <node id="258848150" x="5016.10" y="4339.08" type="priority"/>
    <node id="258848196" x="5070.50" y="1856.87" type="priority"/>
    <node id="258848203" x="4918.78" y="1599.04" type="priority"/>
    <node id="259805081" x="5286.78" y="3134.90" type="priority"/>
    <node id="259805084" x="5253.57" y="3079.45" type="priority"/>
    <node id="259805119" x="5443.49" y="3486.29" type="priority"/>
    <node id="262459775" x="1777.75" y="872.96" type="priority"/>
    <node id="262459784" x="1200.02" y="2455.89" type="priority"/>
    <node id="267219135" x="2809.25" y="4421.18" type="priority"/>
    <node id="267219155" x="2317.01" y="4641.15" type="priority"/>
    <node id="267219174" x="1689.64" y="4644.65" type="priority"/>
    <node id="267219187" x="1252.66" y="4490.64" type="priority"/>
    <node id="267219194" x="1007.16" y="4506.84" type="priority"/>
    <node id="267219211" x="318.73" y="4485.98" type="priority"/>
    <node id="2721237950" x="3175.13" y="4810.76" type="dead_end"/>
    <node id="2721315989" x="3157.36" y="4734.76" type="priority"/>
    <node id="2721418543" x="3174.46" y="4733.33" type="dead_end"/>
    <node id="2721418560" x="3160.36" y="4735.16" type="dead_end"/>
    <node id="2909970829" x="2967.97" y="2906.43" type="priority"/>
    <node id="3211157432" x="3237.18" y="2060.57" type="priority"/>
    <node id="3223953674" x="6497.78" y="987.28" type="priority"/>
    <node id="3432241187" x="3544.82" y="1970.13" type="right_before_left"/>
    <node id="3432241188" x="4471.59" y="1971.66" type="priority"/>
    <node id="343596103" x="444.74" y="1511.29" type="priority"/>
    <node id="3501595608" x="444.45" y="1753.47" type="priority"/>
    <node id="3581112150" x="2278.42" y="6569.96" type="dead_end"/>
    <node id="3596285780" x="2260.39" y="6599.36" type="right_before_left"/>
    <node id="3596285786" x="2947.35" y="6658.71" type="priority"/>
    <node id="3596314834" x="2234.27" y="6903.38" type="priority"/>
    <node id="3596746316" x="2740.80" y="6179.42" type="right_before_left"/>
    <node id="3596746325" x="2801.70" y="6063.72" type="priority"/>
    <node id="3617590789" x="2035.52" y="6903.05" type="priority"/>
    <node id="370504751" x="2993.83" y="4392.12" type="priority"/>