<edges xmlns:xsi="http://www.w3.org/2001/XMLSchema-instance" version="1.16" xsi:noNamespaceSchemaLocation="http://sumo.dlr.de/xsd/edges_file.xsd">
    <location netOffset="-414361.09,-5407699.82" convBoundary="0.00,0.00,6799.37,10594.52" origBoundary="1.586301,48.806252,2.067132,48.911896" projParameter="+proj=utm +zone=31 +ellps=WGS84 +datum=WGS84 +units=m +no_defs" />

    <edge id="-1020078541" from="9408274285" to="503844951" priority="3" type="highway.residential" numLanes="1" speed="13.89" shape="4806.41,4234.23 4788.15,4253.48 4788.15,4259.20 4795.28,4263.46 4810.19,4246.03 4811.85,4239.23" disallow="tram rail_urban rail rail_electric rail_fast ship" />
    <edge id="-1020078545" from="715102475" to="715102015" priority="3" type="highway.residential" numLanes="1" speed="8.33" disallow="tram rail_urban rail rail_electric rail_fast ship" />
    <edge id="-1020078546#0" from="9408274299" to="9408274298" priority="3" type="highway.residential" numLanes="1" speed="8.33" shape="5599.75,4683.92 5601.31,4685.68 5616.79,4672.96" disallow="tram rail_urban rail rail_electric rail_fast ship" />
    <edge id="-1020078546#1" from="9408274298" to="9408274299" priority="3" type="highway.residential" numLanes="1" speed="8.33" shape="5616.79,4672.96 5605.61,4663.62 5592.90,4676.19 5599.75,4683.92" disallow="tram rail_urban rail rail_electric rail_fast ship" />
    <edge id="-1020078546#2" from="504616234" to="9408274298" priority="3" type="highway.residential" numLanes="1" speed="8.33" disallow="tram rail_urban rail rail_electric rail_fast ship" />
    <edge id="-1020078548" from="504616146" to="504616147" priority="3" type="highway.residential" numLanes="1" speed="8.33" disallow="tram rail_urban rail rail_electric rail_fast ship" />
    <edge id="-1020092133" from="928462539" to="928462517" priority="3" type="highway.residential" numLanes="1" speed="8.33" shape="4882.91,4310.30 4886.32,4303.97 4889.51,4293.33 4891.02,4284.53 4890.20,4274.81 4886.52,4264.26 4877.83,4256.25 4860.61,4246.19" disallow="tram rail_urban rail rail_electric rail_fast ship" />
    <edge id="-1020092137#0" from="504616035" to="504616027" priority="3" type="highway.residential" numLanes="1" speed="8.33" shape="5079.69,4448.45 5071.98,4431.72 5063.53,4416.81 5047.41,4403.45 5025.07,4398.00 5014.59,4399.13" disallow="tram rail_urban rail rail_electric rail_fast ship" />
    <edge id="-1020092137#1" from="504616046" to="504616035" priority="3" type="highway.residential" numLanes="1" speed="8.33" shape="5232.66,4556.49 5223.94,4553.03 5201.89,4548.43 5164.10,4535.58 5136.66,4520.43 5107.24,4495.56 5087.06,4466.90 5079.69,4448.45" disallow="tram rail_urban rail rail_electric rail_fast ship" />
    <edge id="-1020092138" from="504616091" to="504616046" priority="3" type="highway.residential" numLanes="1" speed="8.33" disallow="tram rail_urban rail rail_electric rail_fast ship" />
    <edge id="-1020092139#0" from="9408274302" to="504616065" priority="3" type="highway.residential" numLanes="1" speed="8.33" shape="5557.40,4706.40 5555.38,4711.90 5549.97,4719.02 5536.89,4730.87 5519.31,4742.59 5502.34,4750.62 5483.73,4755.28 5462.37,4757.72 5443.54,4755.94 5425.17,4750.81" disallow="tram rail_urban rail rail_electric rail_fast ship" />
    <edge id="-1020092139#1" from="504616089" to="9408274302" priority="3" type="highway.residential" numLanes="1" speed="8.33" shape="5519.79,4664.16 5547.97,4691.86 5555.75,4699.83 5557.57,4705.93 5557.40,4706.40" disallow="tram rail_urban rail rail_electric rail_fast ship" />
    <edge id="-1020092140" from="503842403" to="504616065" priority="3" type="highway.residential" numLanes="1" speed="8.33" disallow="tram rail_urban rail rail_electric rail_fast ship" />
    <edge id="-1020092141" from="504616114" to="504616110" priority="3" type="highway.residential" numLanes="1" speed="8.33" shape="5477.35,4815.41 5470.17,4811.72 5462.65,4811.39 5438.33,4810.07 5412.43,4804.37" disallow="tram rail_urban rail rail_electric rail_fast ship" />
    <edge id="-1020092142" from="504616065" to="504616110" priority="3" type="highway.residential" numLanes="1" speed="8.33" disallow="tram rail_urban rail rail_electric rail_fast ship" />
    <edge id="-1020092143" from="504616110" to="504616134" priority="3" type="highway.residential" numLanes="1" speed="8.33" shape="5412.43,4804.37 5405.88,4839.95 5395.84,4850.20 5381.87,4847.88 5353.26,4832.80" disallow="tram rail_urban rail rail_electric rail_fast ship" />
    <edge id="-1024348862#0" from="1851422686" to="1851422644" priority="3" type="highway.residential" numLanes="1" speed="8.33" shape="4959.67,2331.37 4950.56,2323.57 4944.05,2313.10" disallow="tram rail_urban rail rail_electric rail_fast ship" />
    <edge id="-1024348862#1" from="1225032964" to="1851422686" priority="3" type="highway.residential" numLanes="1" speed="8.33" disallow="tram rail_urban rail rail_electric rail_fast ship" />
    <edge id="-1024348863" from="1485578195" to="2296267150" priority="3" type="highway.residential" numLanes="1" speed="8.33" shape="4854.12,2133.41 4818.42,2043.57 4810.54,2037.13" disallow="tram rail_urban rail rail_electric rail_fast ship" />
    <edge id="-1024971939#0" from="4853656751" to="9450914607" priority="12" type="highway.primary" numLanes="2" speed="13.89" disallow="tram rail_urban rail rail_electric rail_fast ship">
        <param key="ref" value="D 11" />
    </edge>
    <edge id="-1024971939#1" from="7740134414" to="4853656751" priority="12" type="highway.primary" numLanes="2" speed="13.89" disallow="tram rail_urban rail rail_electric rail_fast ship">
        <param key="ref" value="D 11" />
    </edge>
    <edge id="-1025315534" from="258848203" to="9453797895" priority="10" type="highway.tertiary" numLanes="1" speed="8.33" shape="4918.78,1599.04 4919.61,1602.27 4922.74,1608.92 4934.50,1619.49" disallow="tram rail_urban rail rail_electric rail_fast ship" />
    <edge id="-1025315535#0" from="8500131001" to="258848203" priority="10" type="highway.tertiary" numLanes="1" speed="8.33" disallow="tram rail_urban rail rail_electric rail_fast ship" />
    <edge id="-1025315535#1" from="9453797896" to="8500131001" priority="10" type="highway.tertiary" numLanes="1" speed="8.33" disallow="tram rail_urban rail rail_electric rail_fast ship" />
    <edge id="-1025474680" from="5411416324" to="1225032290" priority="4" type="highway.unclassified" numLanes="1" speed="13.89" shape="5267.40,2142.13 5271.34,2135.57 5287.61,2131.03 5323.86,2124.83" disallow="tram rail_urban rail rail_electric rail_fast ship" />
    <edge id="-1025474681" from="1225032290" to="1225049506" priority="4" type="highway.unclassified" numLanes="1" speed="8.33" shape="5323.86,2124.83 5362.87,2115.80 5377.09,2113.59 5410.89,2110.84 5429.50,2110.12 5456.92,2112.45" disallow="tram rail_urban rail rail_electric rail_fast ship" />
    <edge id="-1025474682#0" from="1225033400" to="9455157436" priority="4" type="highway.unclassified" numLanes="1" speed="13.89" shape="5538.35,2128.38 5551.85,2124.79 5571.81,2117.00 5596.60,2105.92" disallow="tram rail_urban rail rail_electric rail_fast ship" />
    <edge id="-1025474682#1" from="1225049506" to="1225033400" priority="4" type="highway.unclassified" numLanes="1" speed="13.89" shape="5456.92,2112.45 5472.01,2114.57 5488.71,2119.72 5504.99,2126.07 5523.83,2129.69 5538.35,2128.38" disallow="tram rail_urban rail rail_electric rail_fast ship" />
    <edge id="-1025474683" from="9455157436" to="1225035779" priority="4" type="highway.unclassified" numLanes="1" speed="8.33" shape="5596.60,2105.92 5614.89,2097.77 5631.92,2088.72 5683.93,2063.46 5708.55,2051.71" disallow="tram rail_urban rail rail_electric rail_fast ship" />
    <edge id="-1025474684" from="4934644007" to="1225048604" priority="4" type="highway.unclassified" numLanes="1" speed="13.89" shape="5832.33,1994.52 5848.73,1988.37 5924.79,1955.06" disallow="tram rail_urban rail rail_electric rail_fast ship" />
    <edge id="-1034110351#0" from="486608890" to="258848137" priority="3" type="highway.residential" numLanes="1" speed="8.33" disallow="tram rail_urban rail rail_electric rail_fast ship" />
    <edge id="-106488416" from="343596103" to="1225035890" priority="10" type="highway.tertiary" numLanes="1" speed="22.22" shape="444.74,1511.29 434.80,1461.92 410.17,1321.44 403.79,1282.29 378.93,1139.48 370.01,1083.34 365.97,1049.74 365.29,1005.03 366.09,869.68 363.55,834.05 361.30,813.63 339.82,728.97 316.04,644.45 267.26,449.35 247.42,375.04 233.35,319.94 224.49,288.89 205.60,234.49 194.48,203.48 187.37,181.39 182.55,161.52 173.97,106.66 165.74,38.55 161.67,0.00" disallow="tram rail_urban rail rail_electric rail_fast ship" />
    <edge id="-106488548" from="1225035779" to="4934644007" priority="4" type="highway.unclassified" numLanes="1" speed="13.89" shape="5708.55,2051.71 5742.67,2037.91 5762.92,2028.92 5781.23,2018.85 5800.05,2008.47 5819.59,1999.29 5832.33,1994.52" disallow="tram rail_urban rail rail_electric rail_fast ship" />
    <edge id="-1076634450" from="504616190" to="504616198" priority="3" type="highway.residential" numLanes="1" speed="8.33" disallow="tram rail_urban rail rail_electric rail_fast ship" />
    <edge id="-1116499321#1" from="241790299" to="241790243" priority="12" type="highway.primary" numLanes="2" speed="8.33" shape="2964.06,4630.25 2969.88,4641.42 2976.10,4654.58 2979.50,4664.11 2980.27,4674.78 2978.68,4690.56 2976.05,4711.68 2972.55,4729.30 2963.43,4763.20 2952.75,4803.51 2947.68,4814.15" disallow="tram rail_urban rail rail_electric rail_fast ship">
        <param key="ref" value="D 191" />
    </edge>
    <edge id="-1116499322" from="241790243" to="241790241" priority="12" type="highway.primary" numLanes="2" speed="8.33" shape="2947.68,4814.15 2929.03,4842.32 2922.15,4854.17 2917.44,4865.33" disallow="tram rail_urban rail rail_electric rail_fast ship">
        <param key="ref" value="D 191" />
    </edge>
    <edge id="-1116499323#0" from="712614884" to="241790227" priority="12" type="highway.primary" numLanes="2" speed="13.89" disallow="tram rail_urban rail rail_electric rail_fast ship">
        <param key="ref" value="D 191" />
    </edge>
    <edge id="-1116499323#1" from="241790235" to="712614884" priority="12" type="highway.primary" numLanes="2" speed="13.89" shape="2866.39,5280.68 2835.61,5711.11 2831.66,5760.44" disallow="tram rail_urban rail rail_electric rail_fast ship">
        <param key="ref" value="D 191" />
    </edge>
    <edge id="-1116499324#0" from="699691251" to="715102342" priority="3" type="highway.residential" numLanes="1" speed="13.89" disallow="tram rail_urban rail rail_electric rail_fast ship" />
    <edge id="-1116499324#1" from="4085448982" to="699691251" priority="3" type="highway.residential" numLanes="1" speed="13.89" disallow="tram rail_urban rail rail_electric rail_fast ship" />
    <edge id="-1116499324#2" from="715102810" to="4085448982" priority="3" type="highway.residential" numLanes="1" speed="13.89" disallow="tram rail_urban rail rail_electric rail_fast ship" />
    <edge id="-1116499328#0" from="2721315989" to="715102688" priority="3" type="highway.residential" numLanes="1" speed="8.33" disallow="tram rail_urban rail rail_electric rail_fast ship" />
    <edge id="-1116499328#1" from="715101848" to="2721315989" priority="3" type="highway.residential" numLanes="1" speed="8.33" disallow="tram rail_urban rail rail_electric rail_fast ship" />
    <edge id="-1116499329" from="715102379" to="715101848" priority="3" type="highway.residential" numLanes="1" speed="8.33" shape="3185.69,4629.71 3184.44,4633.95 3163.84,4699.85 3161.00,4710.47" disallow="tram rail_urban rail rail_electric rail_fast ship" />
    <edge id="-1116499330#0" from="715101875" to="715102379" priority="3" type="highway.residential" numLanes="1" speed="8.33" shape="3170.73,4521.00 3184.43,4528.06 3194.50,4536.11 3198.37,4546.07 3198.38,4559.16 3195.15,4587.75 3187.48,4621.85 3185.69,4629.71" disallow="tram rail_urban rail rail_electric rail_fast ship" />
    <edge id="-1116499331#0" from="715102166" to="715101509" priority="3" type="highway.residential" numLanes="1" speed="8.33" shape="3283.34,4587.10 3272.61,4601.26 3230.58,4635.49 3224.11,4639.23 3216.49,4641.02" disallow="tram rail_urban rail rail_electric rail_fast ship" />
    <edge id="-1116499332#0" from="715101776" to="715102379" priority="3" type="highway.residential" numLanes="1" speed="8.33" disallow="tram rail_urban rail rail_electric rail_fast ship" />
    <edge id="-1116499332#1" from="4859658726" to="715101776" priority="3" type="highway.residential" numLanes="1" speed="8.33" disallow="tram rail_urban rail rail_electric rail_fast ship" />
    <edge id="-1116499332#2" from="715101509" to="4859658726" priority="3" type="highway.residential" numLanes="1" speed="8.33" shape="3216.49,4641.02 3208.70,4639.62 3201.80,4636.84" disallow="tram rail_urban rail rail_electric rail_fast ship" />
    <edge id="-1157449877" from="503845666" to="503845658" priority="3" type="highway.residential" numLanes="1" speed="8.33" shape="5203.32,4391.35 5193.05,4369.69 5194.09,4364.24" disallow="tram rail_urban rail rail_electric rail_fast ship" />
    <edge id="-1157449878#0" from="258848150" to="258848145" priority="3" type="highway.residential" numLanes="1" speed="8.33" shape="5016.10,4339.08 5012.74,4338.29 4995.43,4334.23 4979.88,4324.70 4971.75,4314.29 4965.66,4302.56 4963.88,4284.49 4966.26,4194.02 4967.85,4175.07 4963.46,4159.52 4950.11,4139.71 4916.84,4108.97" disallow="tram rail_urban rail rail_electric rail_fast ship" />
    <edge id="-1157449878#1" from="503842389" to="258848150" priority="3" type="highway.residential" numLanes="1" speed="8.33" shape="5128.50,4425.78 5125.23,4417.05 5121.11,4406.06 5106.45,4380.74 5081.14,4358.67 5052.77,4346.04 5016.10,4339.08" disallow="tram rail_urban rail rail_electric rail_fast ship" />
    <edge id="-1157449879" from="503842389" to="504616035" priority="3" type="highway.residential" numLanes="1" speed="8.33" shape="5128.50,4425.78 5119.90,4429.81 5079.69,4448.45" disallow="tram rail_urban rail rail_electric rail_fast ship" />
    <edge id="-1163710302" from="713881718" to="713881697" priority="3" type="highway.residential" numLanes="1" speed="2.78" shape="3025.69,4241.52 3021.36,4246.09 3007.96,4268.89" disallow="tram rail_urban rail rail_electric rail_fast ship" />
    <edge id="-116495427#0" from="4085448082" to="1313123195" priority="4" type="highway.unclassified" numLanes="1" speed="22.22" disallow="tram rail_urban rail rail_electric rail_fast ship" />
    <edge id="-116495427#1" from="486608790" to="4085448082" priority="4" type="highway.unclassified" numLanes="1" speed="22.22" shape="5747.06,1489.39 5756.57,1504.85 5768.82,1528.00 5779.36,1549.42 5787.44,1566.79 5795.23,1584.36 5800.70,1598.37 5807.31,1617.58 5811.31,1631.01 5815.76,1646.62 5821.79,1665.33 5827.71,1681.05 5888.82,1819.87 5930.14,1913.49" disallow="tram rail_urban rail rail_electric rail_fast ship" />
    <edge id="-118134141" from="713881698" to="713880876" priority="4" type="highway.unclassified" numLanes="1" speed="22.22" shape="1429.36,2449.32 1496.79,2444.18 1505.44,2444.14 1698.54,2443.22 1759.62,2436.84 1822.18,2415.52 1944.88,2364.13 2030.21,2332.45 2093.75,2316.17 2136.01,2302.82 2301.82,2230.01" disallow="tram rail_urban rail rail_electric rail_fast ship" />
    <edge id="-118134142" from="1893447532" to="713881249" priority="4" type="highway.unclassified" numLanes="1" speed="13.89" shape="2600.50,2734.13 2394.12,2703.93 2217.36,2678.31 2184.28,2678.01 2147.39,2685.31" disallow="tram rail_urban rail rail_electric rail_fast ship" />
    <edge id="-1189845996" from="11048178534" to="715102492" priority="4" type="highway.unclassified" numLanes="1" speed="13.89" shape="3344.65,6267.71 3348.31,6283.72 3357.54,6306.85 3319.33,6320.28 3320.55,6330.49" disallow="tram rail_urban rail rail_electric rail_fast ship" />
    <edge id="-1201006889#0" from="1225048068" to="486608790" priority="4" type="highway.unclassified" numLanes="1" speed="22.22" shape="6471.53,1015.93 6328.47,1182.79 6174.51,1321.62 6040.23,1395.03 6006.41,1409.37 5856.95,1433.86 5816.73,1449.75 5785.14,1466.29 5747.06,1489.39" disallow="tram rail_urban rail rail_electric rail_fast ship" />
    <edge id="-1201006889#2" from="3223953674" to="1225048068" priority="4" type="highway.unclassified" numLanes="1" speed="22.22" shape="6497.78,987.28 6485.77,1001.19 6483.80,1003.34 6471.53,1015.93" disallow="tram rail_urban rail rail_electric rail_fast ship" />
    <edge id="-1208350414" from="11196406067" to="713881294" priority="4" type="highway.unclassified" numLanes="1" speed="13.89" disallow="tram rail_urban rail rail_electric rail_fast ship" />
    <edge id="-1216309710" from="11270058862" to="715101797" priority="3" type="highway.residential" numLanes="1" speed="8.33" disallow="tram rail_urban rail rail_electric rail_fast ship" />
    <edge id="-1238123690" from="1850677570" to="471531821" priority="12" type="highway.primary" numLanes="2" speed="13.89" shape="3310.11,3899.86 3305.01,3915.94 3300.13,3929.73" disallow="tram rail_urban rail rail_electric rail_fast ship">
        <param key="ref" value="D 191" />
    </edge>
    <edge id="-1238123695#0" from="715101837" to="1850677574" priority="3" type="highway.residential" numLanes="1" speed="8.33" disallow="tram rail_urban rail rail_electric rail_fast ship" />
    <edge id="-1238123695#1" from="6992929304" to="715101837" priority="3" type="highway.residential" numLanes="1" speed="8.33" disallow="tram rail_urban rail rail_electric rail_fast ship" />
    <edge id="-1238123695#2" from="715101797" to="6992929304" priority="3" type="highway.residential" numLanes="1" speed="8.33" disallow="tram rail_urban rail rail_electric rail_fast ship" />
    <edge id="-1242838379" from="11550046512" to="11550046511" priority="4" type="highway.unclassified" numLanes="1" speed="13.89" disallow="tram rail_urban rail rail_electric rail_fast ship" />
    <edge id="-1242838382" from="11550046536" to="11550046520" priority="12" type="highway.primary" numLanes="2" speed="19.44" disallow="tram rail_urban rail rail_electric rail_fast ship">
        <param key="ref" value="D 11" />
    </edge>
    <edge id="-1242838383" from="11550046521" to="9450914608" priority="12" type="highway.primary" numLanes="2" speed="19.44" shape="716.74,2825.36 851.64,2724.76 941.77,2656.18 1080.36,2551.24" disallow="tram rail_urban rail rail_electric rail_fast ship">
        <param key="ref" value="D 11" />
    </edge>
    <edge id="-1246074623" from="11584381699" to="11584381698" priority="3" type="highway.residential" numLanes="1" speed="8.33" disallow="tram rail_urban rail rail_electric rail_fast ship" />
    <edge id="-125835951#0" from="715101831" to="10211731936" priority="3" type="highway.residential" numLanes="1" speed="8.33" shape="3064.25,4912.66 3056.75,4902.08 3041.37,4886.12" disallow="tram rail_urban rail rail_electric rail_fast ship" />
    <edge id="-125835951#1" from="715102012" to="715101831" priority="3" type="highway.residential" numLanes="1" speed="8.33" disallow="tram rail_urban rail rail_electric rail_fast ship" />
    <edge id="-125835958" from="715102492" to="4851913794" priority="4" type="highway.unclassified" numLanes="1" speed="8.33" shape="3320.55,6330.49 3304.18,6330.48 3293.51,6331.44 3263.04,6340.64" disallow="tram rail_urban rail rail_electric rail_fast ship" />
    <edge id="-125835961" from="715102004" to="715102492" priority="4" type="highway.unclassified" numLanes="1" speed="8.33" shape="3517.10,6274.73 3480.17,6299.94 3469.66,6305.11 3407.97,6329.65 3387.56,6335.21 3378.57,6336.46 3370.88,6336.15 3344.77,6333.95 3320.55,6330.49" disallow="tram rail_urban rail rail_electric rail_fast ship" />
    <edge id="-1259750654#0" from="258848135" to="6828301573" priority="11" type="highway.secondary" numLanes="1" speed="27.78" disallow="tram rail_urban rail rail_electric rail_fast ship">
        <param key="ref" value="D 119" />
    </edge>
    <edge id="-1259750654#1" from="1590006659" to="258848135" priority="11" type="highway.secondary" numLanes="1" speed="27.78" shape="4879.74,3294.45 4863.69,3311.21 4842.46,3343.20" disallow="tram rail_urban rail rail_electric rail_fast ship">
        <param key="ref" value="D 119" />
    </edge>
    <edge id="-1259750654#2" from="258848129" to="1590006659" priority="11" type="highway.secondary" numLanes="1" speed="27.78" shape="5171.64,3102.66 5149.94,3111.49 5112.94,3131.03 5065.26,3165.13 5027.01,3194.92 4983.56,3226.44 4912.62,3265.32 4879.74,3294.45" disallow="tram rail_urban rail rail_electric rail_fast ship">
        <param key="ref" value="D 119" />
    </edge>
    <edge id="-1259750655" from="6828301573" to="11711679529" priority="11" type="highway.secondary" numLanes="1" speed="27.78" disallow="tram rail_urban rail rail_electric rail_fast ship">
        <param key="ref" value="D 119" />
    </edge>
    <edge id="-1264978470#0" from="241790236" to="241790235" priority="12" type="highway.primary" numLanes="2" speed="8.33" shape="2877.55,5144.28 2876.43,5157.95 2866.39,5280.68" disallow="tram rail_urban rail rail_electric rail_fast ship">
        <param key="ref" value="D 191" />
    </edge>
    <edge id="-1264978470#1" from="241790241" to="241790236" priority="12" type="highway.primary" numLanes="2" speed="8.33" shape="2917.44,4865.33 2912.66,4878.55 2909.63,4890.95 2896.50,4945.70 2887.96,4994.59 2882.59,5033.87 2877.55,5144.28" disallow="tram rail_urban rail rail_electric rail_fast ship">
        <param key="ref" value="D 191" />
    </edge>
    <edge id="-1264978471" from="11751535864" to="715102518" priority="4" type="highway.unclassified" numLanes="1" speed="13.89" disallow="tram rail_urban rail rail_electric rail_fast ship" />
    <edge id="-1264978472" from="6992929312" to="11751535867" priority="10" type="highway.tertiary" numLanes="1" speed="8.33" disallow="tram rail_urban rail rail_electric rail_fast ship" />
    <edge id="-1303547646#0" from="12072164210" to="12072164207" priority="3" type="highway.residential" numLanes="1" speed="13.89" shape="1410.92,2409.17 1412.96,2414.57 1419.42,2431.66 1421.28,2436.56 1421.64,2449.93" disallow="tram rail_urban rail rail_electric rail_fast ship" />
    <edge id="-1303547646#1" from="12072164209" to="12072164210" priority="3" type="highway.residential" numLanes="1" speed="13.89" disallow="tram rail_urban rail rail_electric rail_fast ship" />
    <edge id="-1303547647" from="12072164211" to="12072164210" priority="3" type="highway.residential" numLanes="1" speed="13.89" disallow="tram rail_urban rail rail_electric rail_fast ship" />
    <edge id="-131894398" from="1450933033" to="1450930158" priority="3" type="highway.residential" numLanes="1" speed="8.33" shape="572.66,2413.08 550.47,2416.38 529.92,2419.24 514.31,2421.33 504.45,2423.40 495.75,2426.74 481.87,2433.91 470.63,2442.70 463.76,2451.01 455.08,2456.87 445.90,2459.56 435.74,2460.12 422.04,2457.82 406.72,2450.92 390.13,2442.79 359.73,2427.81 346.98,2421.53 335.27,2415.76 330.70,2413.71 324.29,2412.79 316.60,2413.52 300.36,2417.58 298.24,2418.12 269.09,2425.60 184.95,2448.52 169.86,2452.00" disallow="tram rail_urban rail rail_electric rail_fast ship" />
    <edge id="-135254264" from="2383233256" to="1485578096" priority="3" type="highway.residential" numLanes="1" speed="13.89" shape="5059.39,1900.49 5049.98,1905.35 5017.81,1946.59" disallow="tram rail_urban rail rail_electric rail_fast ship" />
    <edge id="-135254267" from="1485578143" to="1485578122" priority="3" type="highway.residential" numLanes="1" speed="13.89" shape="5020.89,2003.75 5014.87,1996.22 4987.02,1972.73" disallow="tram rail_urban rail rail_electric rail_fast ship" />
    <edge id="-135254268" from="1485578168" to="1485578154" priority="3" type="highway.residential" numLanes="1" speed="13.89" shape="5050.42,2051.96 5054.01,2045.71 5090.34,2021.25" disallow="tram rail_urban rail rail_electric rail_fast ship" />
    <edge id="-135254272" from="1485577985" to="1485578003" priority="3" type="highway.residential" numLanes="1" speed="5.56" shape="4768.11,1791.31 4765.41,1812.07 4758.30,1817.92 4743.96,1818.23" disallow="tram rail_urban rail rail_electric rail_fast ship" />
    <edge id="-135254275" from="1485578071" to="1485578073" priority="3" type="highway.residential" numLanes="1" speed="5.56" shape="4659.06,1929.22 4696.13,1922.37 4700.05,1928.99" disallow="tram rail_urban rail rail_electric rail_fast ship" />
    <edge id="-135254276#0" from="1485578096" to="1485578094" priority="3" type="highway.residential" numLanes="1" speed="13.89" disallow="tram rail_urban rail rail_electric rail_fast ship" />
    <edge id="-135254276#1" from="1485578129" to="1485578096" priority="3" type="highway.residential" numLanes="1" speed="13.89" disallow="tram rail_urban rail rail_electric rail_fast ship" />
    <edge id="-135254276#2" from="1485578154" to="1485578129" priority="3" type="highway.residential" numLanes="1" speed="13.89" shape="5090.34,2021.25 5070.03,1990.23 5064.94,1986.01" disallow="tram rail_urban rail rail_electric rail_fast ship" />
    <edge id="-135254276#3" from="1485578162" to="1485578154" priority="3" type="highway.residential" numLanes="1" speed="13.89" shape="5110.96,2034.66 5100.15,2031.74 5090.34,2021.25" disallow="tram rail_urban rail rail_electric rail_fast ship" />
    <edge id="-135254276#4" from="1485578152" to="1485578162" priority="3" type="highway.residential" numLanes="1" speed="13.89" shape="5191.47,2008.77 5127.91,2031.44 5110.96,2034.66" disallow="tram rail_urban rail rail_electric rail_fast ship" />
    <edge id="-135254279#0" from="1485578178" to="1485578144" priority="3" type="highway.residential" numLanes="1" speed="13.89" shape="4934.51,2098.82 4938.74,2077.47 4939.84,2047.54 4949.84,2004.95" disallow="tram rail_urban rail rail_electric rail_fast ship" />
    <edge id="-135254279#1" from="1485578195" to="1485578178" priority="3" type="highway.residential" numLanes="1" speed="13.89" disallow="tram rail_urban rail rail_electric rail_fast ship" />
    <edge id="-135254283#0" from="1485578122" to="1485578137" priority="3" type="highway.residential" numLanes="1" speed="13.89" shape="4987.02,1972.73 4972.66,1988.99 4957.93,1997.03" disallow="tram rail_urban rail rail_electric rail_fast ship" />
    <edge id="-135254283#1" from="1485578094" to="1485578122" priority="3" type="highway.residential" numLanes="1" speed="13.89" shape="5000.52,1948.76 4998.25,1958.34 4987.02,1972.73" disallow="tram rail_urban rail rail_electric rail_fast ship" />
    <edge id="-135254283#2" from="2383233255" to="1485578094" priority="3" type="highway.residential" numLanes="1" speed="13.89" shape="4990.63,1915.68 4999.60,1940.74 5000.52,1948.76" disallow="tram rail_urban rail rail_electric rail_fast ship" />
    <edge id="-135254283#3" from="700351531" to="2383233255" priority="3" type="highway.residential" numLanes="1" speed="13.89" shape="4981.05,1887.26 4982.10,1890.38 4990.63,1915.68" disallow="tram rail_urban rail rail_electric rail_fast ship" />
    <edge id="-135254285" from="1485578132" to="1485578071" priority="3" type="highway.residential" numLanes="1" speed="5.56" shape="4557.68,1993.36 4568.09,1972.28 4579.75,1959.70 4598.68,1945.47 4607.10,1941.26 4659.06,1929.22" disallow="tram rail_urban rail rail_electric rail_fast ship" />
    <edge id="-135254288" from="1485577948" to="1485577923" priority="3" type="highway.residential" numLanes="1" speed="5.56" disallow="tram rail_urban rail rail_electric rail_fast ship" />
    <edge id="-135254289#0" from="1485578029" to="700351531" priority="3" type="highway.residential" numLanes="1" speed="5.56" shape="4968.60,1855.22 4972.14,1859.96 4981.05,1887.26" disallow="tram rail_urban rail rail_electric rail_fast ship" />
    <edge id="-135254289#1" from="1485578024" to="1485578029" priority="3" type="highway.residential" numLanes="1" speed="5.56" disallow="tram rail_urban rail rail_electric rail_fast ship" />
    <edge id="-135254289#10" from="1485577913" to="7921277486" priority="3" type="highway.residential" numLanes="1" speed="5.56" disallow="tram rail_urban rail rail_electric rail_fast ship" />
    <edge id="-135254289#2" from="1485577997" to="1485578024" priority="3" type="highway.residential" numLanes="1" speed="5.56" shape="4933.32,1804.71 4946.27,1835.69 4964.00,1850.93" disallow="tram rail_urban rail rail_electric rail_fast ship" />
    <edge id="-135254289#3" from="8399184144" to="1485577997" priority="3" type="highway.residential" numLanes="1" speed="5.56" shape="4947.58,1781.17 4933.88,1800.37 4933.32,1802.59 4933.32,1804.71" disallow="tram rail_urban rail rail_electric rail_fast ship" />
    <edge id="-135254289#4" from="8399184163" to="8399184144" priority="3" type="highway.residential" numLanes="1" speed="5.56" disallow="tram rail_urban rail rail_electric rail_fast ship" />
    <edge id="-135254289#5" from="1485577964" to="8399184163" priority="3" type="highway.residential" numLanes="1" speed="5.56" disallow="tram rail_urban rail rail_electric rail_fast ship" />
    <edge id="-135254289#6" from="1485577945" to="1485577964" priority="3" type="highway.residential" numLanes="1" speed="5.56" shape="4954.51,1721.69 4960.25,1761.12 4959.38,1764.61" disallow="tram rail_urban rail rail_electric rail_fast ship" />
    <edge id="-135254289#7" from="1485577923" to="1485577945" priority="3" type="highway.residential" numLanes="1" speed="5.56" shape="4921.48,1693.14 4950.01,1713.53 4952.14,1716.47 4954.51,1721.69" disallow="tram rail_urban rail rail_electric rail_fast ship" />
    <edge id="-135254289#8" from="1485577922" to="1485577923" priority="3" type="highway.residential" numLanes="1" speed="5.56" disallow="tram rail_urban rail rail_electric rail_fast ship" />
    <edge id="-135254289#9" from="7921277486" to="1485577922" priority="3" type="highway.residential" numLanes="1" speed="5.56" disallow="tram rail_urban rail rail_electric rail_fast ship" />