<?xml version="1.0" encoding="UTF-8"?>

<!-- generated on 2025-04-04 16:24:03 by Eclipse SUMO netconvert Version 1.19.0
<configuration xmlns:xsi="http://www.w3.org/2001/XMLSchema-instance" xsi:noNamespaceSchemaLocation="http://sumo.dlr.de/xsd/netconvertConfiguration.xsd">

    <input>
        <sumo-net-file value="maule/maule.net.xml"/>
    </input>

    <output>
        <plain-output-prefix value="maule/maule"/>
    </output>

    <processing>
        <geometry.min-radius.fix.railways value="false"/>
        <geometry.max-grade.fix value="false"/>
        <offset.disable-normalization value="true"/>
        <lefthand value="0"/>
    </processing>

    <tls_building>
        <tls.ignore-internal-junction-jam value="1"/>
    </tls_building>

    <junctions>
        <no-turnarounds value="true"/>
        <junctions.corner-detail value="5"/>
        <junctions.limit-turn-speed value="5.50"/>
        <rectangular-lane-cut value="0"/>
    </junctions>

    <pedestrian>
        <walkingareas value="0"/>
    </pedestrian>

</configuration>
-->

<edges version="1.16" xmlns:xsi="http://www.w3.org/2001/XMLSchema-instance" xsi:noNamespaceSchemaLocation="http://sumo.dlr.de/xsd/edges_file.xsd">
    <location netOffset="-413953.69,-5415055.77" convBoundary="0.00,0.00,5312.17,5430.28" origBoundary="1.826328,48.851433,1.898033,48.931577" projParameter="+proj=utm +zone=31 +ellps=WGS84 +datum=WGS84 +units=m +no_defs"/>

    <edge id="-1019774713" from="9405523009" to="9405523008" priority="1" type="highway.service" numLanes="1" speed="5.56" shape="1952.37,3206.53 1970.78,3219.63 2013.43,3243.80" allow="pedestrian delivery bicycle"/>
    <edge id="-1019774714#1" from="cluster_632237323_9405523013" to="9405523008" priority="1" type="highway.service" numLanes="1" speed="5.56" shape="2035.66,3233.04 2028.78,3231.76 2026.87,3231.71 2020.17,3236.81 2013.43,3243.80" allow="pedestrian delivery bicycle"/>
    <edge id="-1022688361" from="632662927" to="9432058847" priority="3" type="highway.residential" numLanes="1" speed="13.89" disallow="tram rail_urban rail rail_electric rail_fast ship"/>
    <edge id="-1024684004#0" from="cluster_11516543411_632240640" to="9448626174" priority="1" type="highway.service" numLanes="1" speed="5.56" shape="1549.97,2273.72 1548.39,2276.26 1544.51,2291.84 1553.99,2307.89 1552.95,2313.23 1537.07,2322.12 1531.35,2311.89" allow="pedestrian delivery bicycle"/>
    <edge id="-1035768273" from="8286663992" to="8467354250" priority="1" type="highway.service" numLanes="1" speed="5.56" shape="3118.17,1679.71 3122.11,1668.02 3122.32,1661.87 3120.64,1657.49" allow="pedestrian delivery bicycle"/>
    <edge id="-105151363#0" from="7043977945" to="1211866794" priority="1" type="highway.service" numLanes="1" speed="22.22" shape="1624.70,4530.21 1620.10,4540.41 1614.54,4549.80 1610.43,4553.52 1569.18,4590.76" allow="pedestrian delivery bicycle"/>
    <edge id="-105151363#1" from="8468057186" to="7043977945" priority="1" type="highway.service" numLanes="1" speed="22.22" shape="1640.57,4489.23 1628.15,4520.29 1624.70,4530.21" allow="pedestrian delivery bicycle"/>
    <edge id="-105151363#2" from="1211866830" to="8468057186" priority="1" type="highway.service" numLanes="1" speed="22.22" shape="1661.12,4361.26 1666.14,4375.50 1667.73,4395.57 1666.02,4419.40 1659.56,4439.98 1652.09,4459.58 1644.91,4478.40 1640.57,4489.23" allow="pedestrian delivery bicycle"/>
    <edge id="-1052658652" from="9674093423" to="9674093422" priority="4" type="highway.unclassified" numLanes="1" speed="13.89" disallow="tram rail_urban rail rail_electric rail_fast ship"/>
    <edge id="-1074327244" from="634514468" to="634514472" priority="3" type="highway.residential" numLanes="1" speed="8.33" shape="2821.81,3470.95 2808.36,3465.52 2782.10,3462.62" disallow="tram rail_urban rail rail_electric rail_fast ship"/>
    <edge id="-107637138" from="1236694179" to="1236692066" priority="3" type="highway.residential" numLanes="1" speed="13.89" shape="3925.62,3442.25 3991.27,3472.10 3994.09,3473.17 4058.69,3490.06 4085.59,3501.41 4100.18,3518.01" disallow="tram rail_urban rail rail_electric rail_fast ship">
        <param key="ref" value="CR 19"/>
    </edge>
    <edge id="-107637147#0" from="975196157" to="1236693003" priority="1" type="highway.track" numLanes="1" speed="5.56" shape="3799.78,2906.96 3830.58,2881.10 3881.17,2831.79 3969.44,2761.99 4063.26,2682.74 4069.06,2675.10 4074.32,2666.60 4080.39,2648.39" allow="pedestrian motorcycle moped bicycle">
        <param key="ref" value="CR 14"/>
    </edge>
    <edge id="-107637220#0" from="10313298133" to="1236693598" priority="1" type="highway.track" numLanes="1" speed="22.22" shape="997.72,1774.39 1010.40,1730.18 1021.94,1680.60 1026.22,1649.19 1024.65,1618.42 1014.20,1569.77 956.40,1339.61 946.05,1306.17 911.89,1203.92 910.80,1195.46 913.68,1187.75 952.15,1159.31" allow="pedestrian motorcycle moped bicycle"/>
    <edge id="-107637220#1" from="1236693796" to="10313298133" priority="1" type="highway.track" numLanes="1" speed="22.22" shape="977.75,1827.51 995.27,1782.93 997.72,1774.39" allow="pedestrian motorcycle moped bicycle"/>
    <edge id="-107637220#2" from="1236693083" to="1236693796" priority="1" type="highway.track" numLanes="1" speed="22.22" shape="940.68,2486.77 945.31,2466.87 989.86,2391.83 1013.44,2346.57 1043.86,2256.41 1062.80,2198.59 1116.19,2053.74 1121.26,2041.94 1121.99,2026.99 1115.14,2012.64 981.61,1847.77 977.26,1837.58 977.75,1827.51" allow="pedestrian motorcycle moped bicycle"/>
    <edge id="-107637247" from="1236694225" to="1236694259" priority="1" type="highway.track" numLanes="1" speed="5.56" shape="3742.63,2614.98 3673.02,2542.57 3576.98,2456.82 3440.26,2339.45 3423.12,2327.69 3417.81,2329.34 3396.95,2342.70 3346.62,2365.03 3335.09,2366.86 3324.30,2367.41 3316.61,2368.13 3299.41,2369.79 3277.08,2373.08 3207.93,2364.36" allow="pedestrian motorcycle moped bicycle">
        <param key="ref" value="CR 16"/>
    </edge>
    <edge id="-107637262" from="1236694170" to="1236693073" priority="1" type="highway.track" numLanes="1" speed="5.56" shape="2062.21,2284.71 2067.79,2263.55 2082.75,2230.48 2098.36,2186.82 2105.60,2167.44 2114.36,2148.17 2132.99,2116.38 2149.37,2085.79 2161.89,2059.82 2184.47,2005.70 2211.56,1951.71 2246.44,1885.85 2261.65,1858.21 2284.10,1809.98 2317.33,1719.49" allow="pedestrian motorcycle moped bicycle"/>
    <edge id="-107637271" from="1236693095" to="8308678120" priority="1" type="highway.track" numLanes="1" speed="5.56" shape="5312.17,3734.80 4905.72,3820.11 4430.20,3918.61 4378.11,3822.41 4374.40,3817.11 4369.36,3811.01 4362.86,3805.44 4354.31,3799.88 4346.16,3796.37 4340.28,3794.68 4314.64,3789.43 4299.12,3787.41 4288.70,3786.58 4244.55,3786.73 4219.31,3785.69 4116.31,3791.99 4103.93,3793.93 3947.44,3842.81 3937.92,3841.42 3934.01,3840.86" allow="pedestrian motorcycle moped bicycle">
        <param key="ref" value="CR 4"/>
    </edge>
    <edge id="-107637275#0" from="1236694273" to="1236692804" priority="1" type="highway.track" numLanes="1" speed="5.56" shape="3691.60,2052.59 3673.36,2036.60 3660.03,2023.65 3623.63,1986.89 3608.04,1973.70 3591.11,1955.26 3535.53,1888.35 3508.33,1858.62 3480.84,1827.33 3478.89,1814.75 3462.59,1792.76 3407.03,1742.01" allow="pedestrian motorcycle moped bicycle"/>
    <edge id="-107637275#1" from="1236692988" to="1236694273" priority="1" type="highway.track" numLanes="1" speed="5.56" shape="3625.50,2097.97 3632.04,2094.48 3691.60,2052.59" allow="pedestrian motorcycle moped bicycle"/>
    <edge id="-107637276#0" from="10278720298" to="975195566" priority="1" type="highway.track" numLanes="1" speed="5.56" shape="3957.01,2479.17 3978.25,2466.76 3998.31,2457.72 4011.11,2452.73 4021.13,2450.90 4062.63,2449.67 4086.40,2449.66 4101.33,2447.90 4121.05,2440.81 4165.57,2415.77 4189.86,2403.79" allow="pedestrian motorcycle moped bicycle"/>
    <edge id="-107637276#1" from="1236694225" to="10278720298" priority="1" type="highway.track" numLanes="1" speed="5.56" shape="3742.63,2614.98 3776.50,2585.24 3815.49,2558.46 3889.73,2513.86 3957.01,2479.17" allow="pedestrian motorcycle moped bicycle"/>
    <edge id="-107637276#2" from="975195512" to="1236694225" priority="1" type="highway.track" numLanes="1" speed="5.56" shape="3709.42,2642.74 3735.92,2621.44 3742.63,2614.98" allow="pedestrian motorcycle moped bicycle"/>
    <edge id="-107637292#0" from="10282649874" to="1236693954" priority="1" type="highway.track" numLanes="1" speed="5.56" shape="3915.12,3199.44 3911.08,3113.65 3912.35,3102.85 3915.90,3092.07 4028.55,3055.98 4294.28,2965.97 4340.63,2888.21 4342.05,2885.82 4354.31,2863.68 4366.02,2850.68 4373.52,2840.80 4377.37,2832.74 4380.30,2818.47 4379.93,2803.10 4373.72,2780.41 4372.77,2772.73 4370.88,2760.90 4377.46,2754.73" allow="pedestrian motorcycle moped bicycle">
        <param key="ref" value="CR 9"/>
    </edge>
    <edge id="-107637292#1" from="9997859395" to="10282649874" priority="1" type="highway.track" numLanes="1" speed="5.56" allow="pedestrian motorcycle moped bicycle">
        <param key="ref" value="CR 9"/>
    </edge>
    <edge id="-107637292#2" from="1236694179" to="9997859395" priority="1" type="highway.track" numLanes="1" speed="5.56" shape="3925.62,3442.25 3917.66,3253.47 3917.39,3247.77" allow="pedestrian motorcycle moped bicycle">
        <param key="ref" value="CR 9"/>
    </edge>
    <edge id="-107637302" from="10278720298" to="1236694273" priority="1" type="highway.track" numLanes="1" speed="5.56" shape="3957.01,2479.17 3909.59,2405.76 3815.68,2262.00 3744.16,2139.49 3710.96,2077.84 3691.60,2052.59" allow="pedestrian motorcycle moped bicycle"/>
    <edge id="-107637312" from="1236694170" to="1236692056" priority="1" type="highway.track" numLanes="1" speed="5.56" shape="2062.21,2284.71 2046.07,2269.81 2030.96,2253.96 2001.84,2220.60 1891.62,2097.45 1862.25,2062.55 1849.85,2039.31 1839.94,2000.19 1828.43,1946.32 1819.60,1887.47 1816.27,1836.50 1802.42,1769.46 1784.49,1697.72 1768.37,1638.77 1738.71,1558.36 1702.67,1442.54 1690.72,1406.24 1676.96,1357.04 1647.80,1314.49 1603.93,1261.50 1568.07,1220.40 1474.82,1144.71" allow="pedestrian motorcycle moped bicycle"/>
    <edge id="-1077203009#0" from="cluster_2365938193_7745450506" to="2199562076" priority="1" type="highway.service" numLanes="1" speed="13.89" shape="1791.65,3218.92 1773.52,3257.07" allow="pedestrian delivery bicycle"/>
    <edge id="-1081931594#1" from="11516543406" to="cluster_11516543410_9915807532" priority="1" type="highway.service" numLanes="1" speed="5.56" shape="1521.45,2253.19 1522.92,2250.80 1528.94,2243.97 1530.33,2243.14 1531.25,2242.42" allow="pedestrian delivery bicycle"/>
    <edge id="-1081931594#2" from="9915807537" to="11516543406" priority="1" type="highway.service" numLanes="1" speed="5.56" shape="1513.76,2282.12 1516.73,2260.85 1521.45,2253.19" allow="pedestrian delivery bicycle"/>
    <edge id="-1089299196" from="9978400284" to="9978400283" priority="1" type="highway.service" numLanes="1" speed="5.56" shape="1833.00,3215.96 1827.93,3223.32 1826.13,3225.94 1824.70,3228.03" allow="pedestrian delivery bicycle"/>
    <edge id="-1089299199" from="9978414528" to="9978414522" priority="1" type="highway.service" numLanes="1" speed="8.33" shape="1861.85,3748.33 1856.95,3747.10 1853.55,3743.52 1853.28,3738.53 1863.49,3698.78 1868.55,3695.67 1875.92,3696.66" allow="pedestrian delivery bicycle"/>
    <edge id="-1089299200" from="9978414539" to="9978414531" priority="1" type="highway.service" numLanes="1" speed="8.33" shape="1895.37,3625.23 1890.62,3623.86 1888.34,3622.99 1884.97,3616.39 1889.03,3601.25 1896.54,3575.59 1899.63,3570.36 1904.15,3570.63 1909.79,3572.29" allow="pedestrian delivery bicycle"/>
    <edge id="-1101438486" from="10079588877" to="634514356" priority="1" type="highway.service" numLanes="1" speed="5.56" shape="2300.65,3417.18 2320.79,3403.98 2326.66,3401.87 2339.31,3412.21 2348.32,3414.28 2358.61,3413.77 2374.74,3408.97 2379.91,3405.62" allow="pedestrian delivery bicycle"/>
    <edge id="-1101438487" from="10079588881" to="632237380" priority="1" type="highway.service" numLanes="1" speed="5.56" shape="2432.33,3376.36 2428.13,3371.84 2406.58,3354.40 2398.54,3349.19 2395.50,3348.61 2392.47,3348.04" allow="pedestrian delivery bicycle"/>
    <edge id="-1104050285" from="10103013145" to="10103013142" priority="1" type="highway.service" numLanes="1" speed="5.56" shape="2667.14,2951.72 2666.69,2958.23 2655.97,2974.96 2621.53,3023.24" allow="pedestrian delivery bicycle"/>
    <edge id="-1104050286" from="10103013147" to="634514083" priority="1" type="highway.service" numLanes="1" speed="5.56" shape="2530.01,2932.67 2504.44,2965.43 2501.12,2972.71" allow="pedestrian delivery bicycle"/>
    <edge id="-1113710346" from="632237244" to="cluster_2295204508_632237234_634514005" priority="12" type="highway.primary" numLanes="2" speed="8.33" shape="2169.00,2997.93 2188.15,2977.07 2208.05,2957.36 2218.64,2949.23" disallow="tram rail_urban rail rail_electric rail_fast ship">
        <param key="ref" value="D 191"/>
    </edge>
    <edge id="-1113710347" from="5411234140" to="634514053" priority="12" type="highway.primary" numLanes="2" speed="13.89" disallow="tram rail_urban rail rail_electric rail_fast ship">
        <param key="ref" value="D 191"/>
    </edge>
    <edge id="-1113710348#0" from="10722195149" to="2721625428" priority="1" type="highway.service" numLanes="1" speed="13.89" allow="pedestrian delivery bicycle"/>
    <edge id="-1113710348#1" from="634514053" to="10722195149" priority="1" type="highway.service" numLanes="1" speed="13.89" shape="2318.82,2867.90 2323.35,2874.32 2308.08,2887.67" allow="pedestrian delivery bicycle"/>
    <edge id="-1113710349#0" from="634514069" to="634514057" priority="3" type="highway.residential" numLanes="1" speed="13.89" shape="2467.21,2845.71 2450.48,2868.14 2442.13,2881.27 2426.83,2922.68 2415.08,2960.46 2413.87,2964.36 2413.70,2968.71 2413.53,2973.05" disallow="tram rail_urban rail rail_electric rail_fast ship"/>
    <edge id="-1113710349#1" from="cluster_10780255654_634514033" to="634514069" priority="3" type="highway.residential" numLanes="1" speed="13.89" shape="2474.07,2837.35 2467.21,2845.71" disallow="tram rail_urban rail rail_electric rail_fast ship"/>
    <edge id="-1113710350" from="634514072" to="632237263" priority="3" type="highway.residential" numLanes="1" speed="13.89" shape="2349.52,3021.94 2343.42,3027.61 2270.21,3095.67 2245.18,3118.95 2240.09,3127.36 2240.18,3130.61 2240.26,3133.87" disallow="tram rail_urban rail rail_electric rail_fast ship"/>
    <edge id="-1115972826" from="2721625428" to="cluster_2295204508_632237234_634514005" priority="1" type="highway.service" numLanes="1" speed="13.89" shape="2281.03,2911.28 2232.71,2950.71" allow="pedestrian delivery bicycle"/>
    <edge id="-1115973330#0" from="10207084116" to="10207092917" priority="1" type="highway.service" numLanes="1" speed="13.89" allow="pedestrian delivery bicycle"/>
    <edge id="-1115973330#1" from="2721625429" to="10207084116" priority="1" type="highway.service" numLanes="1" speed="13.89" allow="pedestrian delivery bicycle"/>
    <edge id="-1115973330#2" from="10173767251" to="2721625429" priority="1" type="highway.service" numLanes="1" speed="13.89" allow="pedestrian delivery bicycle"/>
    <edge id="-1115973330#3" from="10173767291" to="10173767251" priority="1" type="highway.service" numLanes="1" speed="13.89" allow="pedestrian delivery bicycle"/>
    <edge id="-1119964870" from="10243327516" to="10243327512" priority="1" type="highway.service" numLanes="1" speed="5.56" shape="1718.62,4017.92 1768.54,4024.62 1778.36,4030.74 1821.47,4041.55 1831.82,4044.77" allow="pedestrian delivery bicycle"/>
    <edge id="-1121460555" from="10257637734" to="10257637728" priority="4" type="highway.unclassified" numLanes="1" speed="13.89" shape="3623.31,4487.04 3628.00,4492.29 3671.70,4534.16 3669.34,4540.80 3654.88,4556.24 3629.38,4575.58 3621.10,4581.47" disallow="tram rail_urban rail rail_electric rail_fast ship"/>
    <edge id="-1123596332" from="10275499610" to="10275471708" priority="1" type="highway.service" numLanes="1" speed="5.56" shape="1327.17,3662.30 1330.32,3650.83 1332.46,3648.62" allow="pedestrian delivery bicycle"/>
    <edge id="-1123596333#0" from="8270781577" to="8270781576" priority="1" type="highway.service" numLanes="1" speed="8.33" allow="pedestrian delivery bicycle"/>
    <edge id="-1123596333#1" from="8270781579" to="8270781577" priority="1" type="highway.service" numLanes="1" speed="8.33" shape="1445.91,3616.20 1433.87,3647.44 1413.66,3677.28" allow="pedestrian delivery bicycle"/>
    <edge id="-1123596334" from="10275499611" to="8270781577" priority="1" type="highway.service" numLanes="1" speed="5.56" allow="pedestrian delivery bicycle"/>
    <edge id="-1124177009" from="10280336784" to="4922060406" priority="1" type="highway.track" numLanes="1" speed="5.56" shape="2764.54,4090.64 2741.36,4146.87 2728.69,4185.72 2715.62,4210.14" allow="pedestrian motorcycle moped bicycle"/>
    <edge id="-1124462726#0" from="10282649870" to="10282649869" priority="1" type="highway.track" numLanes="1" speed="5.56" allow="pedestrian motorcycle moped bicycle"/>
    <edge id="-1124462727#0" from="9997859402" to="10282649870" priority="1" type="highway.track" numLanes="1" speed="5.56" allow="pedestrian motorcycle moped bicycle"/>
    <edge id="-1124462727#1" from="10282649874" to="9997859402" priority="1" type="highway.track" numLanes="1" speed="5.56" allow="pedestrian motorcycle moped bicycle"/>
    <edge id="-1135540565" from="10585038802" to="632662565" priority="3" type="highway.residential" numLanes="1" speed="8.33" disallow="tram rail_urban rail rail_electric rail_fast ship"/>
    <edge id="-1136128235" from="10591290741" to="634514306" priority="1" type="highway.track" numLanes="1" speed="22.22" shape="1861.63,4309.32 1881.38,4267.48 1893.42,4223.05 1909.05,4115.36 1911.53,4098.33 1919.10,4066.61 1923.36,4041.52 1926.03,4018.30 1929.57,3965.79 1931.24,3931.30" allow="pedestrian motorcycle moped bicycle"/>
    <edge id="-1152766349" from="1560712225" to="632237508" priority="11" type="highway.secondary" numLanes="1" speed="13.89" disallow="tram rail_urban rail rail_electric rail_fast ship">
        <param key="ref" value="D 45"/>
    </edge>
    <edge id="-1152766350" from="632237508" to="632237494" priority="11" type="highway.secondary" numLanes="1" speed="13.89" shape="3489.21,4430.71 3470.66,4434.77 3454.32,4434.69 3440.17,4429.63 3421.49,4417.55" disallow="tram rail_urban rail rail_electric rail_fast ship">
        <param key="ref" value="D 45"/>
    </edge>
    <edge id="-1152766351#0" from="634514648" to="10253596308" priority="3" type="highway.residential" numLanes="1" speed="13.89" shape="3517.31,4124.20 3472.80,4165.06 3451.23,4186.99 3438.62,4204.27 3431.31,4219.52 3427.91,4235.79 3426.90,4247.46" disallow="tram rail_urban rail rail_electric rail_fast ship"/>
    <edge id="-1152766351#1" from="9854210392" to="634514648" priority="3" type="highway.residential" numLanes="1" speed="13.89" shape="3572.55,3867.99 3574.64,3900.62 3576.45,3928.75 3576.96,3953.47 3575.70,3967.85 3570.90,3993.06 3563.34,4025.85 3559.18,4037.45 3544.80,4075.40 3535.72,4096.08 3526.64,4111.21 3517.31,4124.20" disallow="tram rail_urban rail rail_electric rail_fast ship"/>
    <edge id="-1152766351#2" from="634514606" to="9854210392" priority="3" type="highway.residential" numLanes="1" speed="13.89" shape="3583.74,3600.77 3583.35,3607.95 3582.76,3618.69 3578.73,3644.54 3576.33,3678.21 3574.94,3697.76 3572.80,3720.70 3572.42,3747.05 3571.41,3830.27 3571.78,3856.12 3572.55,3867.99" disallow="tram rail_urban rail rail_electric rail_fast ship"/>
    <edge id="-1152766351#3" from="634514597" to="634514606" priority="3" type="highway.residential" numLanes="1" speed="13.89" shape="3563.50,3503.92 3565.66,3510.68 3573.69,3535.84 3579.48,3557.03 3583.02,3581.37 3584.03,3592.65 3583.74,3600.77" disallow="tram rail_urban rail rail_electric rail_fast ship"/>
    <edge id="-1152766351#4" from="634514571" to="634514597" priority="3" type="highway.residential" numLanes="1" speed="13.89" shape="3555.07,3407.66 3556.66,3453.13 3559.06,3481.50 3562.20,3497.35 3563.50,3503.92" disallow="tram rail_urban rail rail_electric rail_fast ship"/>
    <edge id="-1159223036" from="10780255646" to="10780255645" priority="4" type="highway.unclassified" numLanes="1" speed="13.89" disallow="tram rail_urban rail rail_electric rail_fast ship"/>
    <edge id="-1159223039" from="10780255659" to="cluster_10780255654_634514033" priority="3" type="highway.residential" numLanes="1" speed="13.89" shape="2637.27,2890.59 2596.14,2853.56 2573.14,2859.81 2520.01,2851.77 2498.57,2855.15 2474.07,2837.35" disallow="tram rail_urban rail rail_electric rail_fast ship"/>
    <edge id="-1163710303" from="10822663487" to="10822663484" priority="1" type="highway.service" numLanes="1" speed="5.56" shape="1623.75,2934.33 1624.45,2941.46 1618.01,2944.64 1613.62,2946.58" allow="pedestrian delivery bicycle"/>
    <edge id="-1163710305#0" from="10778698372" to="10778698371" priority="1" type="highway.service" numLanes="1" speed="13.89" shape="1878.33,3119.89 1889.15,3106.57 1889.77,3105.81" allow="pedestrian delivery bicycle"/>
    <edge id="-1163710305#1" from="4922059237" to="10778698372" priority="1" type="highway.service" numLanes="1" speed="13.89" allow="pedestrian delivery bicycle"/>
    <edge id="-1163710308" from="10778698372" to="10822663497" priority="1" type="highway.service" numLanes="1" speed="13.89" allow="pedestrian delivery bicycle"/>
    <edge id="-1167403594#0" from="12047960584" to="10856415280" priority="11" type="highway.secondary" numLanes="1" speed="13.89" shape="1609.40,2520.83 1613.24,2542.87 1623.03,2577.74" disallow="tram rail_urban rail rail_electric rail_fast ship">
        <param key="ref" value="D 45"/>
    </edge>
    <edge id="-1167403595" from="10856415280" to="10856415276" priority="11" type="highway.secondary" numLanes="1" speed="13.89" shape="1623.03,2577.74 1625.73,2587.35 1631.53,2598.79" disallow="tram rail_urban rail rail_electric rail_fast ship">
        <param key="ref" value="D 45"/>
    </edge>
    <edge id="-1168585143" from="10867885639" to="634514490" priority="1" type="highway.service" numLanes="1" speed="5.56" shape="2218.79,3727.15 2321.33,3719.23 2324.99,3761.46 2330.77,3787.55 2352.15,3786.46" allow="pedestrian delivery bicycle"/>
    <edge id="-1168585144#0" from="634514403" to="634514417" priority="1" type="highway.track" numLanes="1" speed="5.56" shape="2438.18,3644.35 2475.05,3650.12 2504.39,3652.69 2538.84,3652.39 2593.31,3649.14 2612.42,3648.93 2641.46,3652.25 2717.85,3695.03" allow="pedestrian motorcycle moped bicycle"/>
    <edge id="-1168585144#1" from="634514490" to="634514403" priority="1" type="highway.track" numLanes="1" speed="5.56" shape="2352.15,3786.46 2354.54,3769.47 2355.81,3747.31 2362.89,3714.59 2367.57,3684.20 2367.35,3660.33 2366.65,3641.59 2370.13,3635.54 2376.85,3632.73 2438.18,3644.35" allow="pedestrian motorcycle moped bicycle"/>
    <edge id="-1180664303" from="10965404089" to="10965404086" priority="1" type="highway.service" numLanes="1" speed="5.56" shape="1997.17,3111.28 2000.35,3117.89 2017.13,3127.51 2063.36,3155.32" allow="pedestrian delivery bicycle"/>
    <edge id="-1180664304" from="10965419011" to="10965404090" priority="1" type="highway.service" numLanes="1" speed="5.56" shape="2050.65,2861.83 2056.27,2865.58 2059.90,2868.43 2062.28,2872.83 2062.94,2877.17 2062.91,2880.07 2027.96,2929.14 2025.04,2934.47 2021.57,2942.21 2019.32,2952.14 2015.61,2963.77 2013.53,2970.74 2011.63,2975.12 2010.76,2980.08 2009.36,2982.81 2007.42,2986.73 2004.49,2990.13 2001.76,2991.50 1997.58,2991.56 1991.84,2991.05 1986.75,2996.85 1983.85,3000.38" allow="pedestrian delivery bicycle"/>
    <edge id="-1190451330" from="10589445822" to="11053569332" priority="4" type="highway.unclassified" numLanes="1" speed="13.89" disallow="tram rail_urban rail rail_electric rail_fast ship"/>
    <edge id="-1216086997" from="11267540973" to="11267539965" priority="1" type="highway.service" numLanes="1" speed="5.56" shape="2501.11,2349.50 2507.30,2355.20 2512.37,2358.38 2524.70,2374.41 2529.22,2378.15 2539.32,2375.77 2551.10,2367.52 2570.60,2353.04 2544.15,2317.96" allow="pedestrian delivery bicycle"/>
    <edge id="-1219470453" from="cluster_11299424444_11299424448_11299424450_11299424454_#1more" to="11299466174" priority="1" type="highway.service" numLanes="1" speed="5.56" shape="1865.68,2591.27 1869.40,2586.71 1855.84,2572.11 1853.22,2569.61 1860.47,2561.73" allow="pedestrian delivery bicycle"/>
    <edge id="-1219470454" from="cluster_11299424461_11299424467" to="11299424442" priority="1" type="highway.service" numLanes="1" speed="5.56" shape="1789.05,2594.85 1805.22,2577.33" allow="pedestrian delivery bicycle"/>
    <edge id="-1219470455" from="11299424443" to="cluster_11299424444_11299424448_11299424450_11299424454_#1more" priority="1" type="highway.service" numLanes="1" speed="5.56" shape="1795.49,2643.34 1853.14,2579.62" allow="pedestrian delivery bicycle"/>
    <edge id="-1219470456" from="11299424445" to="11299424446" priority="1" type="highway.service" numLanes="1" speed="5.56" allow="pedestrian delivery bicycle"/>
    <edge id="-1219470457#0" from="11299424446" to="cluster_11299424444_11299424448_11299424450_11299424454_#1more" priority="1" type="highway.service" numLanes="1" speed="5.56" shape="1821.97,2625.22 1858.38,2584.49" allow="pedestrian delivery bicycle"/>
    <edge id="-1219470457#1" from="11299424447" to="11299424446" priority="1" type="highway.service" numLanes="1" speed="5.56" allow="pedestrian delivery bicycle"/>
    <edge id="-1219470458#3" from="11299424445" to="cluster_11299424444_11299424448_11299424450_11299424454_#1more" priority="1" type="highway.service" numLanes="1" speed="5.56" shape="1829.68,2631.70 1865.68,2591.27" allow="pedestrian delivery bicycle"/>
    <edge id="-1219470458#4" from="11299424449" to="11299424445" priority="1" type="highway.service" numLanes="1" speed="5.56" allow="pedestrian delivery bicycle"/>
    <edge id="-1219470461#1" from="cluster_11299424444_11299424448_11299424450_11299424454_#1more" to="cluster_11299424451_11299424452_11299424453_11299424455_#1more" priority="1" type="highway.service" numLanes="1" speed="5.56" shape="1843.36,2570.47 1826.39,2589.91" allow="pedestrian delivery bicycle"/>
    <edge id="-1219470462#0" from="cluster_11299424456_11299424466" to="cluster_11299424460_11299466172" priority="1" type="highway.service" numLanes="1" speed="5.56" shape="1808.07,2609.59 1789.94,2630.52" allow="pedestrian delivery bicycle"/>
    <edge id="-1219470462#1" from="cluster_11299424451_11299424452_11299424453_11299424455_#1more" to="cluster_11299424456_11299424466" priority="1" type="highway.service" numLanes="1" speed="5.56" shape="1817.89,2598.26 1808.07,2609.59" allow="pedestrian delivery bicycle"/>
    <edge id="-1219470462#3" from="11299424442" to="cluster_11299424451_11299424452_11299424453_11299424455_#1more" priority="1" type="highway.service" numLanes="1" speed="5.56" shape="1805.22,2577.33 1821.59,2593.99" allow="pedestrian delivery bicycle"/>
    <edge id="-1219470462#4" from="11299424457" to="11299424442" priority="1" type="highway.service" numLanes="1" speed="5.56" shape="1796.69,2567.24 1799.82,2571.83 1805.22,2577.33" allow="pedestrian delivery bicycle"/>
    <edge id="-1219470463" from="cluster_11299424461_11299424467" to="11299424462" priority="1" type="highway.service" numLanes="1" speed="5.56" shape="1789.05,2594.85 1765.75,2619.56" allow="pedestrian delivery bicycle"/>
    <edge id="-1219470464#1" from="11299424462" to="cluster_11299424460_11299466172" priority="1" type="highway.service" numLanes="1" speed="5.56" shape="1765.75,2619.56 1789.94,2630.52" allow="pedestrian delivery bicycle"/>
    <edge id="-1219470464#2" from="cluster_11299424461_11299424467" to="11299424462" priority="1" type="highway.service" numLanes="1" speed="5.56" shape="1782.20,2589.54 1780.12,2591.59 1776.40,2589.63 1754.21,2614.33 1765.75,2619.56" allow="pedestrian delivery bicycle"/>
    <edge id="-1219470465#0" from="cluster_11299424460_11299466172" to="11299466173" priority="1" type="highway.service" numLanes="1" speed="5.56" shape="1797.22,2633.81 1793.46,2638.77" allow="pedestrian delivery bicycle"/>
    <edge id="-1219470465#1" from="cluster_11299424456_11299424466" to="cluster_11299424460_11299466172" priority="1" type="highway.service" numLanes="1" speed="5.56" shape="1814.39,2614.48 1797.22,2633.81" allow="pedestrian delivery bicycle"/>
    <edge id="-1219470465#2" from="cluster_11299424451_11299424452_11299424453_11299424455_#1more" to="cluster_11299424456_11299424466" priority="1" type="highway.service" numLanes="1" speed="5.56" shape="1824.30,2603.36 1814.39,2614.48" allow="pedestrian delivery bicycle"/>
    <edge id="-1219470465#4" from="cluster_11299424444_11299424448_11299424450_11299424454_#1more" to="cluster_11299424451_11299424452_11299424453_11299424455_#1more" priority="1" type="highway.service" numLanes="1" speed="5.56" shape="1848.93,2575.70 1832.14,2594.55" allow="pedestrian delivery bicycle"/>
    <edge id="-1219470465#6" from="11299424457" to="cluster_11299424444_11299424448_11299424450_11299424454_#1more" priority="1" type="highway.service" numLanes="1" speed="5.56" shape="1796.69,2567.24 1824.70,2552.93 1843.36,2570.47" allow="pedestrian delivery bicycle"/>
    <edge id="-1219470465#7" from="cluster_11299424461_11299424467" to="11299424457" priority="1" type="highway.service" numLanes="1" speed="5.56" shape="1782.20,2589.54 1784.42,2586.77 1774.47,2578.59 1796.69,2567.24" allow="pedestrian delivery bicycle"/>
    <edge id="-1219470465#9" from="cluster_11299424456_11299424466" to="cluster_11299424461_11299424467" priority="1" type="highway.service" numLanes="1" speed="5.56" shape="1808.07,2609.59 1789.05,2594.85" allow="pedestrian delivery bicycle"/>