<?xml version="1.0" encoding="UTF-8"?>

<!-- generated on 2025-04-09 04:00:33 by Eclipse SUMO netconvert Version 1.19.0
<configuration xmlns:xsi="http://www.w3.org/2001/XMLSchema-instance" xsi:noNamespaceSchemaLocation="http://sumo.dlr.de/xsd/netconvertConfiguration.xsd">

    <input>
        <osm-files value="maule/maule.osm"/>
    </input>

    <output>
        <output-file value="maule/maule.net.xml"/>
    </output>

    <projection>
        <proj.utm value="true"/>
    </projection>

    <processing>
        <geometry.remove value="true"/>
        <roundabouts.guess value="true"/>
    </processing>

    <tls_building>
        <tls.discard-simple value="true"/>
        <tls.join value="true"/>
        <tls.ignore-internal-junction-jam value="true"/>
        <tls.guess-signals value="true"/>
    </tls_building>

    <ramp_guessing>
        <ramps.guess value="true"/>
    </ramp_guessing>

    <edge_removal>
        <remove-edges.isolated value="true"/>
    </edge_removal>

    <junctions>
        <junctions.join value="false"/>
    </junctions>

    <report>
        <verbose value="true"/>
    </report>

</configuration>
-->

<net version="1.16" junctionCornerDetail="5" limitTurnSpeed="5.50" tlsIgnoreInternalJunctionJam="1" xmlns:xsi="http://www.w3.org/2001/XMLSchema-instance" xsi:noNamespaceSchemaLocation="http://sumo.dlr.de/xsd/net_file.xsd">

    <location netOffset="-411804.16,-5411541.15" convBoundary="0.00,0.00,7461.70,8944.89" origBoundary="1.796001,48.851433,1.898033,48.931577" projParameter="+proj=utm +zone=31 +ellps=WGS84 +datum=WGS84 +units=m +no_defs"/>

    <type id="highway.footway" priority="1" numLanes="1" speed="2.78" allow="pedestrian" oneway="1" width="2.00"/>
    <type id="highway.living_street" priority="2" numLanes="1" speed="2.78" disallow="tram rail_urban rail rail_electric rail_fast ship" oneway="0"/>
    <type id="highway.path" priority="1" numLanes="1" speed="5.56" allow="pedestrian bicycle" oneway="0" width="2.00"/>
    <type id="highway.primary" priority="12" numLanes="2" speed="27.78" disallow="tram rail_urban rail rail_electric rail_fast ship" oneway="0"/>
    <type id="highway.primary_link" priority="7" numLanes="1" speed="22.22" disallow="tram rail_urban rail rail_electric rail_fast ship" oneway="0"/>
    <type id="highway.residential" priority="3" numLanes="1" speed="13.89" disallow="tram rail_urban rail rail_electric rail_fast ship" oneway="0"/>
    <type id="highway.secondary" priority="11" numLanes="1" speed="27.78" disallow="tram rail_urban rail rail_electric rail_fast ship" oneway="0"/>
    <type id="highway.service" priority="1" numLanes="1" speed="5.56" allow="pedestrian delivery bicycle" oneway="0"/>
    <type id="highway.steps" priority="1" numLanes="1" speed="1.39" allow="pedestrian" oneway="1" width="2.00"/>
    <type id="highway.tertiary" priority="10" numLanes="1" speed="22.22" disallow="tram rail_urban rail rail_electric rail_fast ship" oneway="0"/>
    <type id="highway.track" priority="1" numLanes="1" speed="5.56" allow="pedestrian motorcycle moped bicycle" oneway="0"/>
    <type id="highway.unclassified" priority="4" numLanes="1" speed="13.89" disallow="tram rail_urban rail rail_electric rail_fast ship" oneway="0"/>
    <type id="railway.rail" priority="20" numLanes="1" speed="44.44" allow="rail" oneway="1"/>

    <edge id=":10079588877_0" function="internal">
        <lane id=":10079588877_0_0" index="0" allow="pedestrian delivery bicycle" speed="3.65" length="4.67" shape="4451.06,6933.14 4449.62,6933.13 4448.84,6932.68 4448.74,6931.79 4449.30,6930.46"/>
    </edge>
    <edge id=":10079588881_0" function="internal">
        <lane id=":10079588881_0_0" index="0" allow="pedestrian delivery bicycle" speed="3.65" length="4.67" shape="4583.03,6889.89 4583.26,6891.31 4582.95,6892.15 4582.09,6892.40 4580.69,6892.06"/>
    </edge>
    <edge id=":10103013142_0" function="internal">
        <lane id=":10103013142_0_0" index="0" disallow="tram rail_urban rail rail_electric rail_fast ship" speed="13.89" length="9.40" shape="4773.96,6541.89 4766.30,6536.44"/>
    </edge>
    <edge id=":10103013142_1" function="internal">
        <lane id=":10103013142_1_0" index="0" allow="pedestrian delivery bicycle" speed="6.86" length="3.27" shape="4773.96,6541.89 4771.94,6539.97 4771.75,6539.53"/>
    </edge>
    <edge id=":10103013142_7" function="internal">
        <lane id=":10103013142_7_0" index="0" allow="pedestrian delivery bicycle" speed="6.86" length="6.90" shape="4771.75,6539.53 4771.03,6537.86 4771.21,6535.57 4772.49,6533.10"/>
    </edge>
    <edge id=":10103013142_2" function="internal">
        <lane id=":10103013142_2_0" index="0" allow="pedestrian delivery bicycle" speed="5.04" length="5.00" shape="4775.09,6534.96 4774.46,6536.18 4774.37,6537.30 4774.83,6538.34 4775.82,6539.28"/>
    </edge>
    <edge id=":10103013142_3" function="internal">
        <lane id=":10103013142_3_0" index="0" allow="pedestrian delivery bicycle" speed="6.86" length="10.16" shape="4775.09,6534.96 4773.17,6536.97 4771.07,6537.89 4768.78,6537.71 4766.30,6536.44"/>
    </edge>
    <edge id=":10103013142_4" function="internal">
        <lane id=":10103013142_4_0" index="0" allow="pedestrian delivery bicycle" speed="3.65" length="4.67" shape="4775.09,6534.96 4773.74,6535.47 4772.86,6535.33 4772.44,6534.54 4772.49,6533.10"/>
    </edge>
    <edge id=":10103013142_5" function="internal">
        <lane id=":10103013142_5_0" index="0" allow="pedestrian delivery bicycle" speed="5.04" length="5.00" shape="4768.16,6533.83 4769.38,6534.46 4770.50,6534.55 4771.54,6534.09 4772.49,6533.10"/>
    </edge>
    <edge id=":10103013142_6" function="internal">
        <lane id=":10103013142_6_0" index="0" disallow="tram rail_urban rail rail_electric rail_fast ship" speed="13.89" length="9.40" shape="4768.16,6533.83 4775.82,6539.28"/>
    </edge>
    <edge id=":10103013145_0" function="internal">
        <lane id=":10103013145_0_0" index="0" allow="pedestrian delivery bicycle" speed="3.65" length="4.67" shape="4815.07,6466.23 4815.95,6465.09 4816.77,6464.74 4817.55,6465.20 4818.26,6466.45"/>
    </edge>
    <edge id=":10103013147_0" function="internal">
        <lane id=":10103013147_0_0" index="0" allow="pedestrian delivery bicycle" speed="3.65" length="4.67" shape="4678.28,6446.31 4679.65,6445.85 4680.53,6446.03 4680.91,6446.84 4680.80,6448.28"/>
    </edge>
    <edge id=":10173767251_0" function="internal">
        <lane id=":10173767251_0_0" index="0" allow="pedestrian delivery bicycle" speed="13.89" length="5.01" shape="4452.81,6431.92 4449.15,6435.34"/>
    </edge>
    <edge id=":10173767251_1" function="internal">
        <lane id=":10173767251_1_0" index="0" allow="pedestrian delivery bicycle" speed="3.65" length="1.44" shape="4452.81,6431.92 4451.39,6432.15"/>
    </edge>
    <edge id=":10173767251_4" function="internal">
        <lane id=":10173767251_4_0" index="0" allow="pedestrian delivery bicycle" speed="3.65" length="3.23" shape="4451.39,6432.15 4450.55,6431.84 4450.30,6430.98 4450.63,6429.58"/>
    </edge>
    <edge id=":10173767251_2" function="internal">
        <lane id=":10173767251_2_0" index="0" allow="pedestrian delivery bicycle" speed="13.89" length="5.02" shape="4446.96,6433.01 4450.63,6429.58"/>
    </edge>
    <edge id=":10173767251_3" function="internal">
        <lane id=":10173767251_3_0" index="0" allow="pedestrian delivery bicycle" speed="3.65" length="1.44" shape="4446.96,6433.01 4448.38,6432.77"/>
    </edge>
    <edge id=":10173767251_5" function="internal">
        <lane id=":10173767251_5_0" index="0" allow="pedestrian delivery bicycle" speed="3.65" length="3.23" shape="4448.38,6432.77 4449.22,6433.08 4449.48,6433.93 4449.15,6435.34"/>
    </edge>
    <edge id=":10173767291_0" function="internal">
        <lane id=":10173767291_0_0" index="0" allow="pedestrian delivery bicycle" speed="3.65" length="4.67" shape="4464.42,6416.72 4465.84,6416.49 4466.68,6416.80 4466.93,6417.66 4466.60,6419.06"/>
    </edge>
    <edge id=":10207084116_0" function="internal">
        <lane id=":10207084116_0_0" index="0" allow="pedestrian delivery bicycle" speed="13.89" length="4.61" shape="4437.63,6446.09 4434.25,6449.23"/>
    </edge>
    <edge id=":10207084116_1" function="internal">
        <lane id=":10207084116_1_0" index="0" allow="pedestrian delivery bicycle" speed="3.65" length="1.44" shape="4437.63,6446.09 4436.20,6446.32"/>
    </edge>
    <edge id=":10207084116_4" function="internal">
        <lane id=":10207084116_4_0" index="0" allow="pedestrian delivery bicycle" speed="3.65" length="3.23" shape="4436.20,6446.32 4435.36,6446.00 4435.11,6445.15 4435.45,6443.74"/>
    </edge>
    <edge id=":10207084116_2" function="internal">
        <lane id=":10207084116_2_0" index="0" allow="pedestrian delivery bicycle" speed="13.89" length="4.63" shape="4432.06,6446.90 4435.45,6443.74"/>
    </edge>
    <edge id=":10207084116_3" function="internal">
        <lane id=":10207084116_3_0" index="0" allow="pedestrian delivery bicycle" speed="3.65" length="1.44" shape="4432.06,6446.90 4433.49,6446.66"/>
    </edge>
    <edge id=":10207084116_5" function="internal">
        <lane id=":10207084116_5_0" index="0" allow="pedestrian delivery bicycle" speed="3.65" length="3.23" shape="4433.49,6446.66 4434.32,6446.97 4434.58,6447.83 4434.25,6449.23"/>
    </edge>
    <edge id=":10207092917_0" function="internal">
        <lane id=":10207092917_0_0" index="0" allow="pedestrian delivery bicycle" speed="3.65" length="4.67" shape="4434.11,6449.37 4432.68,6449.61 4431.84,6449.30 4431.59,6448.44 4431.92,6447.04"/>
    </edge>
    <edge id=":10221085718_0" function="internal">
        <lane id=":10221085718_0_0" index="0" allow="pedestrian delivery bicycle" speed="5.97" length="5.12" shape="4164.95,6836.15 4164.07,6836.05 4163.05,6836.39 4161.89,6837.16 4160.59,6838.36"/>
    </edge>
    <edge id=":10221085718_1" function="internal">
        <lane id=":10221085718_1_0" index="0" disallow="tram rail_urban rail rail_electric rail_fast ship" speed="13.89" length="5.67" shape="4164.95,6836.15 4159.65,6834.14"/>
    </edge>
    <edge id=":10221085724_0" function="internal">
        <lane id=":10221085724_0_0" index="0" disallow="tram rail_urban rail rail_electric rail_fast ship" speed="13.89" length="5.13" shape="4142.96,6826.55 4138.54,6823.94"/>
    </edge>
    <edge id=":10221085724_1" function="internal">
        <lane id=":10221085724_1_0" index="0" allow="pedestrian delivery bicycle" speed="4.80" length="4.25" shape="4138.74,6827.77 4139.28,6826.46 4139.43,6825.39 4139.18,6824.55 4138.54,6823.94"/>
    </edge>
    <edge id=":10238158929_0" function="internal">
        <lane id=":10238158929_0_0" index="0" disallow="tram rail_urban rail rail_electric rail_fast ship" speed="13.89" length="10.23" shape="1632.32,7378.35 1622.34,7376.10"/>
    </edge>
    <edge id=":10238158929_1" function="internal">
        <lane id=":10238158929_1_0" index="0" allow="pedestrian delivery bicycle" speed="8.85" length="2.62" shape="1632.32,7378.35 1630.32,7377.46 1630.01,7377.15"/>
    </edge>
    <edge id=":10238158929_7" function="internal">
        <lane id=":10238158929_7_0" index="0" allow="pedestrian delivery bicycle" speed="8.85" length="8.43" shape="1630.01,7377.15 1628.60,7375.75 1627.17,7373.22 1626.01,7369.88"/>
    </edge>
    <edge id=":10238158929_2" function="internal">
        <lane id=":10238158929_2_0" index="0" allow="pedestrian delivery bicycle" speed="7.44" length="7.61" shape="1629.10,7369.05 1629.92,7371.55 1630.85,7373.41 1631.88,7374.64 1633.03,7375.23"/>
    </edge>
    <edge id=":10238158929_3" function="internal">
        <lane id=":10238158929_3_0" index="0" allow="pedestrian delivery bicycle" speed="6.67" length="13.08" shape="1629.10,7369.05 1629.61,7372.91 1628.65,7375.37 1626.23,7376.44 1622.34,7376.10"/>
    </edge>
    <edge id=":10238158929_4" function="internal">
        <lane id=":10238158929_4_0" index="0" allow="pedestrian delivery bicycle" speed="3.65" length="4.67" shape="1629.10,7369.05 1628.64,7370.41 1627.98,7371.01 1627.10,7370.83 1626.01,7369.88"/>
    </edge>
    <edge id=":10238158929_5" function="internal">
        <lane id=":10238158929_5_0" index="0" allow="pedestrian delivery bicycle" speed="4.69" length="5.74" shape="1623.05,7372.98 1624.75,7373.13 1625.81,7372.66 1626.23,7371.58 1626.01,7369.88"/>
    </edge>
    <edge id=":10238158929_6" function="internal">
        <lane id=":10238158929_6_0" index="0" disallow="tram rail_urban rail rail_electric rail_fast ship" speed="13.89" length="10.23" shape="1623.05,7372.98 1633.03,7375.23"/>
    </edge>
    <edge id=":10243327512_0" function="internal">
        <lane id=":10243327512_0_0" index="0" disallow="tram rail_urban rail rail_electric rail_fast ship" speed="22.22" length="9.40" shape="3987.27,7555.87 3984.82,7564.95"/>
        <lane id=":10243327512_0_1" index="1" disallow="tram rail_urban rail rail_electric rail_fast ship" speed="22.22" length="9.40" shape="3984.18,7555.03 3981.73,7564.11"/>
    </edge>
    <edge id=":10243327512_2" function="internal">
        <lane id=":10243327512_2_0" index="0" allow="pedestrian delivery bicycle" speed="7.61" length="2.93" shape="3984.18,7555.03 3982.85,7557.64"/>
    </edge>
    <edge id=":10243327512_9" function="internal">
        <lane id=":10243327512_9_0" index="0" allow="pedestrian delivery bicycle" speed="7.61" length="10.17" shape="3982.85,7557.64 3980.58,7559.10 3977.36,7559.39 3973.21,7558.53"/>
    </edge>
    <edge id=":10243327512_3" function="internal">
        <lane id=":10243327512_3_0" index="0" allow="pedestrian delivery bicycle" speed="5.00" length="5.05" shape="3974.16,7555.48 3975.53,7555.70 3976.63,7555.42 3977.46,7554.64 3978.01,7553.36"/>
    </edge>
    <edge id=":10243327512_4" function="internal">
        <lane id=":10243327512_4_0" index="0" allow="pedestrian delivery bicycle" speed="7.73" length="12.81" shape="3974.16,7555.48 3978.06,7557.08 3980.62,7559.06 3981.84,7561.40 3981.73,7564.11"/>
    </edge>
    <edge id=":10243327512_5" function="internal">
        <lane id=":10243327512_5_0" index="0" allow="pedestrian delivery bicycle" speed="3.65" length="4.67" shape="3974.16,7555.48 3975.07,7556.60 3975.21,7557.48 3974.59,7558.12 3973.21,7558.53"/>
    </edge>
    <edge id=":10243327512_6" function="internal">
        <lane id=":10243327512_6_0" index="0" allow="pedestrian delivery bicycle" speed="5.17" length="5.15" shape="3975.55,7562.44 3975.70,7561.10 3975.36,7560.00 3974.53,7559.14 3973.21,7558.53"/>
    </edge>
    <edge id=":10243327512_7" function="internal">
        <lane id=":10243327512_7_0" index="0" disallow="tram rail_urban rail rail_electric rail_fast ship" speed="22.22" length="9.40" shape="3975.55,7562.44 3978.01,7553.36"/>
        <lane id=":10243327512_7_1" index="1" disallow="tram rail_urban rail rail_electric rail_fast ship" speed="22.22" length="9.40" shape="3978.64,7563.28 3981.10,7554.20"/>
    </edge>
    <edge id=":10243327516_0" function="internal">
        <lane id=":10243327516_0_0" index="0" allow="pedestrian delivery bicycle" speed="3.65" length="4.67" shape="3867.93,7534.13 3866.85,7533.17 3866.56,7532.33 3867.06,7531.59 3868.35,7530.95"/>
    </edge>
    <edge id=":10253596304_0" function="internal">
        <lane id=":10253596304_0_0" index="0" disallow="tram rail_urban rail rail_electric rail_fast ship" speed="13.89" length="7.62" shape="5560.77,7776.43 5554.83,7771.64"/>
    </edge>
    <edge id=":10253596304_1" function="internal">
        <lane id=":10253596304_1_0" index="0" disallow="tram rail_urban rail rail_electric rail_fast ship" speed="5.95" length="2.36" shape="5560.77,7776.43 5559.26,7774.61"/>
    </edge>
    <edge id=":10253596304_2" function="internal">
        <lane id=":10253596304_2_0" index="0" disallow="tram rail_urban rail rail_electric rail_fast ship" speed="3.65" length="1.44" shape="5560.77,7776.43 5560.34,7775.05"/>
    </edge>
    <edge id=":10253596304_6" function="internal">
        <lane id=":10253596304_6_0" index="0" disallow="tram rail_urban rail rail_electric rail_fast ship" speed="5.95" length="7.62" shape="5559.26,7774.61 5559.26,7772.81 5560.78,7771.04 5563.81,7769.30"/>
    </edge>
    <edge id=":10253596304_7" function="internal">
        <lane id=":10253596304_7_0" index="0" disallow="tram rail_urban rail rail_electric rail_fast ship" speed="3.65" length="3.23" shape="5560.34,7775.05 5560.53,7774.18 5561.34,7773.80 5562.78,7773.93"/>
    </edge>
    <edge id=":10253596304_3" function="internal">
        <lane id=":10253596304_3_0" index="0" disallow="tram rail_urban rail rail_electric rail_fast ship" speed="7.23" length="7.35" shape="5556.84,7769.15 5558.26,7769.96 5559.90,7770.25 5561.75,7770.03 5563.81,7769.30"/>
    </edge>
    <edge id=":10253596304_4" function="internal">
        <lane id=":10253596304_4_0" index="0" disallow="tram rail_urban rail rail_electric rail_fast ship" speed="13.89" length="7.63" shape="5556.84,7769.15 5562.78,7773.93"/>
    </edge>
    <edge id=":10253596304_5" function="internal">
        <lane id=":10253596304_5_0" index="0" disallow="tram rail_urban rail rail_electric rail_fast ship" speed="3.65" length="1.44" shape="5556.84,7769.15 5557.27,7770.52"/>
    </edge>
    <edge id=":10253596304_8" function="internal">
        <lane id=":10253596304_8_0" index="0" disallow="tram rail_urban rail rail_electric rail_fast ship" speed="3.65" length="3.23" shape="5557.27,7770.52 5557.08,7771.40 5556.27,7771.77 5554.83,7771.64"/>
    </edge>
    <edge id=":10253596308_0" function="internal">
        <lane id=":10253596308_0_0" index="0" disallow="tram rail_urban rail rail_electric rail_fast ship" speed="13.89" length="7.27" shape="5578.09,7761.40 5577.46,7768.64"/>
    </edge>
    <edge id=":10253596308_1" function="internal">
        <lane id=":10253596308_1_0" index="0" disallow="tram rail_urban rail rail_electric rail_fast ship" speed="3.65" length="4.67" shape="5578.09,7761.40 5577.19,7762.53 5576.35,7762.85 5575.59,7762.39 5574.90,7761.12"/>
    </edge>
    <edge id=":10253596308_2" function="internal">
        <lane id=":10253596308_2_0" index="0" disallow="tram rail_urban rail rail_electric rail_fast ship" speed="7.61" length="7.00" shape="5570.32,7766.09 5572.24,7764.88 5573.64,7763.65 5574.53,7762.40 5574.90,7761.12"/>
    </edge>
    <edge id=":10253596308_3" function="internal">
        <lane id=":10253596308_3_0" index="0" disallow="tram rail_urban rail rail_electric rail_fast ship" speed="13.89" length="7.27" shape="5574.27,7768.36 5574.90,7761.12"/>
    </edge>
    <edge id=":10253596308_4" function="internal">
        <lane id=":10253596308_4_0" index="0" disallow="tram rail_urban rail rail_electric rail_fast ship" speed="3.65" length="4.67" shape="5574.27,7768.36 5575.17,7767.24 5576.01,7766.91 5576.77,7767.37 5577.46,7768.64"/>
    </edge>
    <edge id=":10257637728_0" function="internal">
        <lane id=":10257637728_0_0" index="0" disallow="tram rail_urban rail rail_electric rail_fast ship" speed="13.89" length="14.72" shape="5776.37,8102.40 5764.59,8093.57"/>
    </edge>
    <edge id=":10257637728_1" function="internal">
        <lane id=":10257637728_1_0" index="0" disallow="tram rail_urban rail rail_electric rail_fast ship" speed="7.56" length="15.53" shape="5776.37,8102.40 5773.21,8099.24 5772.18,8096.11 5773.28,8093.00 5776.52,8089.93"/>
    </edge>
    <edge id=":10257637728_2" function="internal">
        <lane id=":10257637728_2_0" index="0" disallow="tram rail_urban rail rail_electric rail_fast ship" speed="3.65" length="4.67" shape="5776.37,8102.40 5775.89,8101.04 5776.05,8100.16 5776.85,8099.76 5778.29,8099.84"/>
    </edge>
    <edge id=":10257637728_3" function="internal">
        <lane id=":10257637728_3_0" index="0" disallow="tram rail_urban rail rail_electric rail_fast ship" speed="5.94" length="9.09" shape="5778.38,8092.53 5776.48,8094.34 5775.83,8096.15 5776.44,8097.99 5778.29,8099.84"/>
    </edge>
    <edge id=":10257637728_4" function="internal">
        <lane id=":10257637728_4_0" index="0" disallow="tram rail_urban rail rail_electric rail_fast ship" speed="9.28" length="14.88" shape="5778.38,8092.53 5774.60,8094.67 5771.04,8095.56 5767.71,8095.19 5764.59,8093.57"/>
    </edge>
    <edge id=":10257637728_5" function="internal">
        <lane id=":10257637728_5_0" index="0" disallow="tram rail_urban rail rail_electric rail_fast ship" speed="3.65" length="4.67" shape="5778.38,8092.53 5776.94,8092.58 5776.15,8092.16 5776.01,8091.27 5776.52,8089.93"/>
    </edge>
    <edge id=":10257637728_6" function="internal">
        <lane id=":10257637728_6_0" index="0" disallow="tram rail_urban rail rail_electric rail_fast ship" speed="7.99" length="10.82" shape="5766.51,8091.01 5768.69,8092.10 5771.08,8092.29 5773.69,8091.56 5776.52,8089.93"/>
    </edge>
    <edge id=":10257637728_7" function="internal">
        <lane id=":10257637728_7_0" index="0" disallow="tram rail_urban rail rail_electric rail_fast ship" speed="13.89" length="14.72" shape="5766.51,8091.01 5778.29,8099.84"/>
    </edge>
    <edge id=":10257637728_8" function="internal">
        <lane id=":10257637728_8_0" index="0" disallow="tram rail_urban rail rail_electric rail_fast ship" speed="3.65" length="4.67" shape="5766.51,8091.01 5766.99,8092.37 5766.83,8093.25 5766.03,8093.65 5764.59,8093.57"/>
    </edge>
    <edge id=":10257637734_0" function="internal">
        <lane id=":10257637734_0_0" index="0" disallow="tram rail_urban rail rail_electric rail_fast ship" speed="3.65" length="4.67" shape="5771.64,8002.73 5771.44,8001.30 5771.77,8000.47 5772.63,8000.23 5774.03,8000.59"/>
    </edge>
    <edge id=":10275471708_0" function="internal">
        <lane id=":10275471708_0_0" index="0" allow="pedestrian delivery bicycle" speed="4.87" length="5.70" shape="3484.74,7166.98 3483.32,7166.33 3482.15,7166.42 3481.23,7167.27 3480.57,7168.86"/>
    </edge>
    <edge id=":10275471708_1" function="internal">
        <lane id=":10275471708_1_0" index="0" disallow="tram rail_urban rail rail_electric rail_fast ship" speed="8.33" length="9.71" shape="3484.74,7166.98 3476.64,7161.62"/>
    </edge>
    <edge id=":10275471708_2" function="internal">
        <lane id=":10275471708_2_0" index="0" disallow="tram rail_urban rail rail_electric rail_fast ship" speed="8.33" length="9.72" shape="3478.40,7158.95 3486.50,7164.31"/>
    </edge>
    <edge id=":10275471708_3" function="internal">
        <lane id=":10275471708_3_0" index="0" allow="pedestrian delivery bicycle" speed="6.95" length="2.73" shape="3478.40,7158.95 3480.09,7160.59 3480.23,7160.94"/>
    </edge>
    <edge id=":10275471708_7" function="internal">
        <lane id=":10275471708_7_0" index="0" allow="pedestrian delivery bicycle" speed="6.95" length="8.14" shape="3480.23,7160.94 3481.01,7162.79 3481.17,7165.55 3480.57,7168.86"/>
    </edge>
    <edge id=":10275471708_4" function="internal">
        <lane id=":10275471708_4_0" index="0" allow="pedestrian delivery bicycle" speed="5.83" length="5.35" shape="3477.92,7166.43 3478.18,7164.87 3478.06,7163.55 3477.54,7162.46 3476.64,7161.62"/>
    </edge>
    <edge id=":10275471708_5" function="internal">
        <lane id=":10275471708_5_0" index="0" allow="pedestrian delivery bicycle" speed="6.45" length="11.00" shape="3477.92,7166.43 3479.13,7163.82 3480.97,7162.60 3483.43,7162.76 3486.50,7164.31"/>
    </edge>
    <edge id=":10275471708_6" function="internal">
        <lane id=":10275471708_6_0" index="0" allow="pedestrian delivery bicycle" speed="3.80" length="5.25" shape="3477.92,7166.43 3479.49,7166.04 3480.46,7166.32 3480.81,7167.25 3480.57,7168.86"/>
    </edge>
    <edge id=":10275499610_0" function="internal">
        <lane id=":10275499610_0_0" index="0" allow="pedestrian delivery bicycle" speed="3.65" length="4.67" shape="3478.24,7177.34 3477.15,7178.28 3476.27,7178.46 3475.61,7177.86 3475.15,7176.49"/>
    </edge>
    <edge id=":10275499611_0" function="internal">
        <lane id=":10275499611_0_0" index="0" allow="pedestrian delivery bicycle" speed="3.65" length="4.67" shape="3561.11,7203.69 3559.98,7204.59 3559.10,7204.73 3558.46,7204.11 3558.06,7202.72"/>
    </edge>
    <edge id=":10275499614_0" function="internal">
        <lane id=":10275499614_0_0" index="0" disallow="tram rail_urban rail rail_electric rail_fast ship" speed="8.33" length="4.26" shape="3432.54,7312.96 3428.29,7312.63"/>
    </edge>
    <edge id=":10275499614_1" function="internal">
        <lane id=":10275499614_1_0" index="0" disallow="tram rail_urban rail rail_electric rail_fast ship" speed="8.33" length="4.36" shape="3428.42,7309.46 3432.77,7309.77"/>
    </edge>
    <edge id=":10278720298_0" function="internal">
        <lane id=":10278720298_0_0" index="0" allow="pedestrian motorcycle moped bicycle" speed="5.56" length="14.67" shape="6113.44,5991.61 6100.58,5998.66"/>
    </edge>
    <edge id=":10278720298_1" function="internal">
        <lane id=":10278720298_1_0" index="0" allow="pedestrian motorcycle moped bicycle" speed="5.56" length="14.41" shape="6113.44,5991.61 6109.88,5993.03 6106.64,5992.96 6103.72,5991.39 6101.10,5988.33"/>
    </edge>
    <edge id=":10278720298_2" function="internal">
        <lane id=":10278720298_2_0" index="0" allow="pedestrian motorcycle moped bicycle" speed="3.65" length="4.67" shape="6113.44,5991.61 6112.00,5991.52 6111.25,5991.04 6111.19,5990.14 6111.82,5988.85"/>
    </edge>
    <edge id=":10278720298_3" function="internal">
        <lane id=":10278720298_3_0" index="0" allow="pedestrian motorcycle moped bicycle" speed="5.56" length="9.41" shape="6103.79,5986.60 6105.51,5988.63 6107.43,5989.68 6109.53,5989.75 6111.82,5988.85"/>
    </edge>
    <edge id=":10278720298_4" function="internal">
        <lane id=":10278720298_4_0" index="0" allow="pedestrian motorcycle moped bicycle" speed="5.56" length="14.58" shape="6103.79,5986.60 6105.48,5990.28 6105.51,5993.52 6103.87,5996.31 6100.58,5998.66"/>
    </edge>
    <edge id=":10278720298_5" function="internal">
        <lane id=":10278720298_5_0" index="0" allow="pedestrian motorcycle moped bicycle" speed="3.65" length="4.67" shape="6103.79,5986.60 6103.77,5988.04 6103.32,5988.81 6102.43,5988.91 6101.10,5988.33"/>
    </edge>
    <edge id=":10278720298_6" function="internal">
        <lane id=":10278720298_6_0" index="0" allow="pedestrian motorcycle moped bicycle" speed="5.56" length="9.04" shape="6099.11,5995.82 6101.15,5994.36 6102.17,5992.63 6102.15,5990.62 6101.10,5988.33"/>
    </edge>
    <edge id=":10278720298_7" function="internal">
        <lane id=":10278720298_7_0" index="0" allow="pedestrian motorcycle moped bicycle" speed="5.56" length="14.50" shape="6099.11,5995.82 6111.82,5988.85"/>
    </edge>
    <edge id=":10278720298_8" function="internal">
        <lane id=":10278720298_8_0" index="0" allow="pedestrian motorcycle moped bicycle" speed="3.65" length="4.67" shape="6099.11,5995.82 6100.54,5995.98 6101.26,5996.51 6101.28,5997.40 6100.58,5998.66"/>
    </edge>
    <edge id=":10280336784_0" function="internal">
        <lane id=":10280336784_0_0" index="0" allow="pedestrian motorcycle moped bicycle" speed="3.65" length="4.67" shape="4912.59,7604.65 4913.79,7603.84 4914.68,7603.78 4915.27,7604.45 4915.55,7605.87"/>
    </edge>
    <edge id=":10282649812_0" function="internal">
        <lane id=":10282649812_0_0" index="0" allow="pedestrian motorcycle moped bicycle" speed="5.56" length="5.12" shape="4818.49,8178.55 4815.89,8174.13"/>
    </edge>
    <edge id=":10282649812_1" function="internal">
        <lane id=":10282649812_1_0" index="0" allow="pedestrian motorcycle moped bicycle" speed="3.65" length="4.67" shape="4818.49,8178.55 4818.57,8177.11 4819.06,8176.36 4819.95,8176.29 4821.25,8176.92"/>
    </edge>
    <edge id=":10282649812_2" function="internal">
        <lane id=":10282649812_2_0" index="0" allow="pedestrian motorcycle moped bicycle" speed="5.56" length="5.12" shape="4818.65,8172.51 4821.25,8176.92"/>
    </edge>
    <edge id=":10282649812_3" function="internal">
        <lane id=":10282649812_3_0" index="0" allow="pedestrian motorcycle moped bicycle" speed="3.65" length="4.67" shape="4818.65,8172.51 4818.57,8173.95 4818.08,8174.70 4817.19,8174.76 4815.89,8174.13"/>
    </edge>
    <edge id=":10282649822_0" function="internal">
        <lane id=":10282649822_0_0" index="0" allow="pedestrian motorcycle moped bicycle" speed="5.56" length="5.02" shape="4621.34,7942.73 4619.69,7947.47"/>
    </edge>
    <edge id=":10282649822_1" function="internal">
        <lane id=":10282649822_1_0" index="0" allow="pedestrian motorcycle moped bicycle" speed="3.65" length="1.44" shape="4621.34,7942.73 4620.19,7943.60"/>
    </edge>
    <edge id=":10282649822_4" function="internal">
        <lane id=":10282649822_4_0" index="0" allow="pedestrian motorcycle moped bicycle" speed="3.65" length="3.23" shape="4620.19,7943.60 4619.31,7943.71 4618.68,7943.07 4618.32,7941.67"/>
    </edge>
    <edge id=":10282649822_2" function="internal">
        <lane id=":10282649822_2_0" index="0" allow="pedestrian motorcycle moped bicycle" speed="5.56" length="5.02" shape="4616.67,7946.41 4618.32,7941.67"/>
    </edge>
    <edge id=":10282649822_3" function="internal">
        <lane id=":10282649822_3_0" index="0" allow="pedestrian motorcycle moped bicycle" speed="3.65" length="1.44" shape="4616.67,7946.41 4617.82,7945.54"/>
    </edge>
    <edge id=":10282649822_5" function="internal">
        <lane id=":10282649822_5_0" index="0" allow="pedestrian motorcycle moped bicycle" speed="3.65" length="3.23" shape="4617.82,7945.54 4618.71,7945.43 4619.33,7946.07 4619.69,7947.47"/>
    </edge>
    <edge id=":10282649869_0" function="internal">
        <lane id=":10282649869_0_0" index="0" allow="pedestrian motorcycle moped bicycle" speed="22.22" length="14.76" shape="5690.58,6616.95 5689.77,6602.22"/>
    </edge>
    <edge id=":10282649869_1" function="internal">