<?xml version="1.0" encoding="UTF-8"?>

<!-- generated on 2025-04-04 16:24:03 by Eclipse SUMO netconvert Version 1.19.0
<configuration xmlns:xsi="http://www.w3.org/2001/XMLSchema-instance" xsi:noNamespaceSchemaLocation="http://sumo.dlr.de/xsd/netconvertConfiguration.xsd">

    <input>
        <sumo-net-file value="maule/maule.net.xml"/>
    </input>

    <output>
        <plain-output-prefix value="maule/maule"/>
    </output>

    <processing>
        <geometry.min-radius.fix.railways value="false"/>
        <geometry.max-grade.fix value="false"/>
        <offset.disable-normalization value="true"/>
        <lefthand value="0"/>
    </processing>

    <tls_building>
        <tls.ignore-internal-junction-jam value="1"/>
    </tls_building>

    <junctions>
        <no-turnarounds value="true"/>
        <junctions.corner-detail value="5"/>
        <junctions.limit-turn-speed value="5.50"/>
        <rectangular-lane-cut value="0"/>
    </junctions>

    <pedestrian>
        <walkingareas value="0"/>
    </pedestrian>

</configuration>
-->

<nodes version="1.16" xmlns:xsi="http://www.w3.org/2001/XMLSchema-instance" xsi:noNamespaceSchemaLocation="http://sumo.dlr.de/xsd/nodes_file.xsd">
    <location netOffset="-413953.69,-5415055.77" convBoundary="0.00,0.00,5312.17,5430.28" origBoundary="1.826328,48.851433,1.898033,48.931577" projParameter="+proj=utm +zone=31 +ellps=WGS84 +datum=WGS84 +units=m +no_defs"/>

    <node id="10079588877" x="2300.65" y="3417.18" type="priority"/>
    <node id="10079588881" x="2432.33" y="3376.36" type="priority"/>
    <node id="10103013142" x="2621.53" y="3023.24" type="priority"/>
    <node id="10103013145" x="2667.14" y="2951.72" type="priority"/>
    <node id="10103013147" x="2530.01" y="2932.67" type="priority"/>
    <node id="10173767251" x="2300.31" y="2917.89" type="priority"/>
    <node id="10173767252" x="2301.48" y="2929.78" type="dead_end"/>
    <node id="10173767253" x="2302.86" y="2931.06" type="dead_end"/>
    <node id="10173767276" x="2353.81" y="2923.25" type="dead_end"/>
    <node id="10173767277" x="2336.69" y="2907.04" type="dead_end"/>
    <node id="10173767290" x="2291.48" y="2938.99" type="dead_end"/>
    <node id="10173767291" x="2315.98" y="2903.28" type="priority"/>
    <node id="10173767300" x="2157.96" y="3157.77" type="dead_end"/>
    <node id="10207084116" x="2285.19" y="2931.99" type="priority"/>
    <node id="10207092917" x="2283.78" y="2933.31" type="priority"/>
    <node id="10221074405" x="1753.93" y="2903.43" type="dead_end"/>
    <node id="10221074406" x="1758.22" y="2903.92" type="dead_end"/>
    <node id="10221085718" x="2013.81" y="3320.92" type="priority"/>
    <node id="10221085724" x="1990.69" y="3310.31" type="priority"/>
    <node id="10243327512" x="1831.82" y="4044.77" type="priority"/>
    <node id="10243327516" x="1718.62" y="4017.92" type="priority"/>
    <node id="10253596308" x="3426.90" y="4247.46" type="priority"/>
    <node id="10257637728" x="3621.10" y="4581.47" type="priority"/>
    <node id="10257637734" x="3623.31" y="4487.04" type="priority"/>
    <node id="10275471708" x="1332.46" y="3648.62" type="priority"/>
    <node id="10275499610" x="1327.17" y="3662.30" type="priority"/>
    <node id="10275499611" x="1410.06" y="3688.59" type="priority"/>
    <node id="10278720298" x="3957.01" y="2479.17" type="right_before_left"/>
    <node id="10280336784" x="2764.54" y="4090.64" type="priority"/>
    <node id="10282630899" x="2681.08" y="4477.70" type="dead_end"/>
    <node id="10282649822" x="2469.33" y="4430.39" type="priority"/>
    <node id="10282649869" x="3542.19" y="3093.79" type="priority"/>
    <node id="10282649870" x="3656.91" y="3125.83" type="right_before_left"/>
    <node id="10282649874" x="3915.12" y="3199.44" type="right_before_left"/>
    <node id="10282649876" x="3429.43" y="3268.36" type="dead_end"/>
    <node id="10282649877" x="3338.64" y="3256.52" type="priority"/>
    <node id="10313298133" x="997.72" y="1774.39" type="priority"/>
    <node id="10585038802" x="1475.05" y="3691.82" type="priority"/>
    <node id="10589445822" x="3641.25" y="4376.68" type="priority"/>
    <node id="10591290741" x="1861.63" y="4309.32" type="priority"/>
    <node id="10722195149" x="2308.08" y="2887.67" type="priority"/>
    <node id="10722195150" x="2312.03" y="2892.07" type="dead_end"/>
    <node id="10778698365" x="1991.91" y="3010.18" type="right_before_left"/>
    <node id="10778698371" x="1889.77" y="3105.81" type="priority"/>
    <node id="10778698372" x="1878.33" y="3119.89" type="priority"/>
    <node id="10778698373" x="1952.83" y="2969.42" type="right_before_left"/>
    <node id="10778698377" x="1939.06" y="2991.44" type="dead_end"/>
    <node id="10780255645" x="2986.56" y="3359.98" type="priority"/>
    <node id="10780255646" x="3016.92" y="3300.40" type="priority"/>
    <node id="10780255647" x="3035.51" y="3249.17" type="priority"/>
    <node id="10780255659" x="2637.27" y="2890.59" type="priority"/>
    <node id="10822663484" x="1613.62" y="2946.58" type="priority"/>
    <node id="10822663487" x="1623.75" y="2934.33" type="priority"/>
    <node id="10822663497" x="1862.09" y="3109.00" type="priority"/>
    <node id="10856415276" x="1631.53" y="2598.79" type="priority"/>
    <node id="10856415280" x="1623.03" y="2577.74" type="priority"/>
    <node id="10860797061" x="2677.42" y="2568.29" type="priority"/>
    <node id="10867885623" x="2341.84" y="4195.47" type="right_before_left"/>
    <node id="10867885631" x="2077.86" y="4198.45" type="priority"/>
    <node id="10867885639" x="2218.79" y="3727.15" type="priority"/>
    <node id="10894063516" x="3424.65" y="4278.74" type="priority"/>
    <node id="10965404086" x="2063.36" y="3155.32" type="priority"/>
    <node id="10965404089" x="1997.17" y="3111.28" type="priority"/>
    <node id="10965404090" x="1983.85" y="3000.38" type="priority"/>
    <node id="10965419011" x="2050.65" y="2861.83" type="priority"/>
    <node id="11053569332" x="3596.30" y="4328.08" type="priority"/>
    <node id="11053569350" x="4003.83" y="4612.26" type="dead_end"/>
    <node id="11129497841" x="1753.34" y="3313.64" type="dead_end"/>
    <node id="11129497843" x="1757.44" y="3323.58" type="dead_end"/>
    <node id="11129497845" x="1799.44" y="3245.45" type="dead_end"/>
    <node id="11129497846" x="1792.84" y="3241.75" type="dead_end"/>
    <node id="11129497848" x="1907.38" y="3053.29" type="dead_end"/>
    <node id="11129497849" x="1891.79" y="3104.63" type="priority"/>
    <node id="11129497874" x="1273.19" y="3767.75" type="right_before_left"/>
    <node id="11129497875" x="1283.01" y="3769.79" type="priority"/>
    <node id="11267539965" x="2544.15" y="2317.96" type="priority"/>
    <node id="11267540973" x="2501.11" y="2349.50" type="priority"/>
    <node id="11299424442" x="1805.22" y="2577.33" type="right_before_left"/>
    <node id="11299424443" x="1795.49" y="2643.34" type="priority" fringe="inner">
        <param key="buffer_stop" value="true"/>
    </node>
    <node id="11299424445" x="1829.68" y="2631.70" type="right_before_left"/>
    <node id="11299424446" x="1821.97" y="2625.22" type="right_before_left"/>
    <node id="11299424447" x="1802.63" y="2646.87" type="priority" fringe="inner">
        <param key="buffer_stop" value="true"/>
    </node>
    <node id="11299424449" x="1812.52" y="2650.98" type="priority" fringe="inner">
        <param key="buffer_stop" value="true"/>
    </node>
    <node id="11299424457" x="1796.69" y="2567.24" type="right_before_left"/>
    <node id="11299424462" x="1765.75" y="2619.56" type="right_before_left"/>
    <node id="11299466173" x="1793.46" y="2638.77" type="priority" fringe="inner">
        <param key="buffer_stop" value="true"/>
    </node>
    <node id="11299466174" x="1860.47" y="2561.73" type="priority"/>
    <node id="11328012308" x="1169.95" y="3140.10" type="priority"/>
    <node id="11392564272" x="1683.76" y="2682.62" type="priority"/>
    <node id="11516543406" x="1521.45" y="2253.19" type="right_before_left"/>
    <node id="11516543409" x="1538.95" y="2280.66" type="priority"/>
    <node id="11516543429" x="1672.08" y="2656.43" type="dead_end"/>
    <node id="11528611934" x="1763.94" y="3203.89" type="dead_end"/>
    <node id="11528611936" x="1751.32" y="3186.57" type="dead_end"/>
    <node id="11663315409" x="1728.93" y="2972.84" type="priority"/>
    <node id="11663315410" x="1735.73" y="2958.32" type="priority"/>
    <node id="11688088180" x="1820.15" y="2992.56" type="priority"/>
    <node id="11688088181" x="1849.34" y="3000.32" type="priority"/>
    <node id="11711679505" x="1850.39" y="3294.22" type="priority"/>
    <node id="11711679510" x="1876.43" y="3254.03" type="priority"/>
    <node id="1193658548" x="3427.31" y="4290.93" type="priority"/>
    <node id="12047919332" x="2965.85" y="2275.13" type="priority"/>
    <node id="12047919345" x="2790.52" y="2427.13" type="priority"/>
    <node id="12047919352" x="2680.76" y="2564.11" type="priority"/>
    <node id="12047919353" x="2156.67" y="2430.51" type="priority"/>
    <node id="12047919355" x="2196.44" y="2483.75" type="priority"/>
    <node id="12047919356" x="2386.81" y="2412.15" type="priority"/>
    <node id="12047919357" x="2364.92" y="2430.27" type="right_before_left"/>
    <node id="12047919358" x="2318.50" y="2373.77" type="priority"/>
    <node id="12047919360" x="2376.04" y="2443.85" type="priority"/>
    <node id="12047919361" x="1921.22" y="2702.12" type="priority"/>
    <node id="12047919366" x="1944.43" y="2771.43" type="priority"/>
    <node id="12047919368" x="1684.01" y="2083.81" type="priority"/>
    <node id="12047960574" x="1758.49" y="2290.31" type="right_before_left"/>
    <node id="12047960575" x="1551.38" y="2438.97" type="priority"/>
    <node id="12047960584" x="1609.40" y="2520.83" type="priority"/>
    <node id="12047960585" x="1428.42" y="2782.89" type="priority"/>
    <node id="12047960586" x="1442.44" y="2749.34" type="right_before_left"/>
    <node id="12047960587" x="1438.89" y="2721.38" type="priority"/>
    <node id="12047960596" x="1491.33" y="2880.53" type="priority"/>
    <node id="12047960602" x="1431.96" y="2860.95" type="priority"/>
    <node id="12047960606" x="1432.37" y="2926.31" type="right_before_left"/>
    <node id="12047960608" x="1745.18" y="3988.26" type="priority"/>
    <node id="12072153912" x="2502.97" y="2583.91" type="dead_end"/>
    <node id="1211866794" x="1569.18" y="4590.76" type="priority"/>
    <node id="1211866830" x="1661.12" y="4361.26" type="priority"/>
    <node id="12152425104" x="1246.03" y="1696.99" type="priority"/>
    <node id="12356489559" x="1704.17" y="3276.86" type="dead_end"/>
    <node id="12356489561" x="2250.85" y="2922.85" type="priority"/>
    <node id="12356489563" x="2239.90" y="2909.08" type="right_before_left"/>
    <node id="12356489564" x="2262.60" y="2890.00" type="priority"/>
    <node id="12356489565" x="2227.93" y="2918.18" type="priority"/>
    <node id="1236692056" x="1474.82" y="1144.71" type="priority"/>
    <node id="1236692066" x="4100.18" y="3518.01" type="priority"/>
    <node id="1236692804" x="3407.03" y="1742.01" type="priority"/>
    <node id="1236692988" x="3625.50" y="2097.97" type="priority"/>
    <node id="1236693003" x="4080.39" y="2648.39" type="priority"/>
    <node id="1236693073" x="2317.33" y="1719.49" type="right_before_left"/>
    <node id="1236693083" x="940.68" y="2486.77" type="priority"/>
    <node id="1236693095" x="5312.17" y="3734.80" type="priority"/>
    <node id="1236693598" x="952.15" y="1159.31" type="priority"/>
    <node id="1236693796" x="977.75" y="1827.51" type="priority"/>
    <node id="1236693954" x="4377.46" y="2754.73" type="priority"/>
    <node id="1236694170" x="2062.21" y="2284.71" type="right_before_left"/>
    <node id="1236694179" x="3925.62" y="3442.25" type="priority"/>
    <node id="1236694225" x="3742.63" y="2614.98" type="right_before_left"/>
    <node id="1236694259" x="3207.93" y="2364.36" type="priority"/>
    <node id="1236694273" x="3691.60" y="2052.59" type="right_before_left"/>
    <node id="12700376520" x="2465.62" y="2433.63" type="priority"/>
    <node id="1455287129" x="1602.09" y="2998.35" type="dead_end"/>
    <node id="1560712225" x="3509.48" y="4418.43" type="priority"/>
    <node id="1560712245" x="3486.31" y="4451.59" type="right_before_left"/>
    <node id="1560712258" x="3474.51" y="4463.96" type="priority"/>
    <node id="1560712272" x="3228.82" y="4497.22" type="priority"/>
    <node id="1560712284" x="3363.36" y="4536.57" type="priority"/>
    <node id="1560712333" x="3674.38" y="4622.06" type="priority"/>
    <node id="1560712340" x="2660.59" y="4646.59" type="dead_end"/>
    <node id="1560712361" x="2351.06" y="4687.37" type="priority"/>
    <node id="1560712364" x="2380.42" y="4697.57" type="priority"/>
    <node id="1560712499" x="3295.38" y="4878.82" type="priority"/>
    <node id="1560712813" x="2460.56" y="5217.57" type="priority"/>
    <node id="1896958491" x="884.96" y="3597.95" type="right_before_left"/>
    <node id="1896958495" x="761.16" y="3710.80" type="priority"/>
    <node id="2199562076" x="1773.52" y="3257.07" type="priority"/>
    <node id="2199562091" x="1770.04" y="3308.88" type="priority"/>
    <node id="2295204499" x="2426.28" y="2781.06" type="right_before_left"/>
    <node id="2295204501" x="2440.07" y="2789.07" type="dead_end"/>
    <node id="2295204502" x="2483.90" y="2791.99" type="dead_end"/>
    <node id="2295204503" x="2457.18" y="2796.65" type="dead_end"/>
    <node id="2295204504" x="2488.15" y="2795.49" type="priority"/>
    <node id="2295204505" x="2473.60" y="2805.17" type="dead_end"/>
    <node id="2295204506" x="1717.35" y="2935.01" type="right_before_left"/>
    <node id="2295204510" x="1756.23" y="2996.18" type="right_before_left"/>
    <node id="2295204511" x="1772.71" y="3002.06" type="priority"/>
    <node id="2295204512" x="1747.53" y="3017.45" type="priority"/>
    <node id="2295204513" x="2150.50" y="3018.06" type="priority"/>
    <node id="250953495" x="2840.66" y="2357.00" type="priority"/>
    <node id="2721513647" x="2140.19" y="3146.06" type="dead_end"/>
    <node id="2721513648" x="2150.64" y="3153.04" type="dead_end"/>
    <node id="2721535665" x="2143.50" y="3140.85" type="priority"/>
    <node id="2721535666" x="2139.40" y="3144.95" type="dead_end"/>
    <node id="2721549426" x="2203.12" y="3054.08" type="priority"/>
    <node id="2721549434" x="2150.25" y="3126.68" type="priority"/>
    <node id="2721549436" x="2149.22" y="3128.65" type="priority"/>
    <node id="2721563785" x="2206.07" y="3056.20" type="dead_end"/>
    <node id="2721563789" x="2213.78" y="3065.06" type="dead_end"/>
    <node id="2721618791" x="2299.04" y="2947.44" type="dead_end"/>
    <node id="2721625426" x="2312.64" y="2894.86" type="dead_end"/>
    <node id="2721625428" x="2281.03" y="2911.28" type="priority"/>
    <node id="2721625429" x="2292.83" y="2924.92" type="priority"/>
    <node id="2721672276" x="2212.88" y="3066.39" type="dead_end"/>
    <node id="2721672292" x="2213.97" y="3079.04" type="priority"/>
    <node id="3255902048" x="2473.89" y="2576.42" type="dead_end"/>
    <node id="3255902050" x="2436.87" y="2397.34" type="priority"/>
    <node id="3255902051" x="2575.16" y="2571.83" type="priority"/>
    <node id="3787843403" x="1976.87" y="2476.88" type="priority"/>
    <node id="3787843439" x="2007.21" y="2535.21" type="priority"/>
    <node id="4000670463" x="1242.91" y="3906.79" type="priority"/>
    <node id="4000670464" x="1407.42" y="3922.70" type="priority"/>
    <node id="4000670465" x="1409.92" y="3908.88" type="priority"/>
    <node id="4185032389" x="3381.19" y="3557.84" type="priority"/>
    <node id="4185032391" x="3376.48" y="3557.91" type="priority"/>
    <node id="4185033652" x="3388.88" y="3559.89" type="priority"/>
    <node id="4185033653" x="3506.30" y="3485.05" type="priority"/>
    <node id="4185033661" x="3381.54" y="3554.26" type="priority"/>
    <node id="4185033663" x="3515.18" y="3513.40" type="priority"/>
    <node id="4185033670" x="3429.51" y="3489.52" type="priority"/>
    <node id="4185033676" x="3414.09" y="3562.84" type="priority"/>
    <node id="4185033678" x="3511.76" y="3548.26" type="priority"/>
    <node id="4185033699" x="3394.08" y="3472.80" type="priority"/>
    <node id="4185033700" x="3431.89" y="3518.14" type="priority"/>
    <node id="4185033702" x="3432.60" y="3498.69" type="priority"/>
    <node id="4185034803" x="3191.59" y="3510.11" type="priority"/>
    <node id="4185034806" x="3286.16" y="3511.45" type="priority"/>
    <node id="4185034807" x="3343.11" y="3481.59" type="priority"/>
    <node id="4185034808" x="3205.46" y="3544.00" type="priority"/>
    <node id="4185034809" x="3338.43" y="3500.93" type="priority"/>
    <node id="4185034810" x="3209.19" y="3512.31" type="priority"/>
    <node id="4185034812" x="3283.96" y="3509.12" type="priority"/>
    <node id="4185034813" x="3167.20" y="3521.83" type="priority"/>
    <node id="4185034815" x="3172.01" y="3469.35" type="priority"/>
    <node id="4185035092" x="3216.04" y="3422.72" type="priority"/>
    <node id="4185035096" x="3146.81" y="3406.70" type="priority"/>
    <node id="4185035100" x="3154.27" y="3445.98" type="priority"/>
    <node id="4294651878" x="2307.67" y="2250.81" type="priority"/>
    <node id="4294651884" x="1963.14" y="2978.14" type="priority"/>
    <node id="4589342452" x="1903.03" y="2598.30" type="priority"/>
    <node id="4589342455" x="1991.15" y="2705.44" type="priority"/>
    <node id="4589342457" x="1945.55" y="2646.78" type="priority"/>
    <node id="4589342458" x="2056.86" y="2600.82" type="priority"/>
    <node id="4589342461" x="1768.85" y="2705.20" type="priority"/>
    <node id="475921961" x="3679.87" y="4234.50" type="priority"/>
    <node id="475921962" x="3590.42" y="4333.38" type="priority"/>
    <node id="4792267341" x="1744.55" y="3408.87" type="right_before_left"/>
    <node id="4792267350" x="1608.77" y="3761.18" type="dead_end"/>
    <node id="4792267352" x="1581.03" y="3769.45" type="priority"/>
    <node id="4792267357" x="1554.94" y="3815.59" type="right_before_left"/>
    <node id="4792267358" x="1505.04" y="3809.22" type="priority"/>
    <node id="4792267361" x="1651.13" y="3869.54" type="priority"/>
    <node id="4792267366" x="1500.03" y="4334.20" type="priority"/>
    <node id="4922059236" x="1850.51" y="3120.32" type="priority"/>
    <node id="4922059237" x="1869.44" y="3134.42" type="priority"/>
    <node id="4922059238" x="1813.05" y="3222.18" type="priority"/>
    <node id="4922059239" x="1703.26" y="3107.17" type="right_before_left"/>
    <node id="4922059248" x="1625.01" y="3080.20" type="priority"/>
    <node id="4922059249" x="1590.57" y="3052.10" type="priority"/>
    <node id="4922059259" x="2390.15" y="2614.94" type="right_before_left"/>
    <node id="4922059263" x="2291.68" y="2695.21" type="right_before_left"/>
    <node id="4922059266" x="2323.28" y="2757.08" type="right_before_left"/>
    <node id="4922059275" x="2238.34" y="2717.74" type="priority"/>
    <node id="4922059277" x="2257.63" y="2718.46" type="right_before_left"/>
    <node id="4922059278" x="2253.67" y="2729.90" type="right_before_left"/>
    <node id="4922059281" x="2172.67" y="2781.29" type="right_before_left"/>
    <node id="4922059285" x="2288.52" y="2602.15" type="priority"/>
    <node id="4922059286" x="2179.19" y="2674.38" type="priority"/>
    <node id="4922059287" x="2183.73" y="2772.01" type="priority"/>
    <node id="4922060396" x="2560.72" y="4169.07" type="right_before_left"/>
    <node id="4922060400" x="2783.62" y="4486.97" type="priority"/>
    <node id="4922060406" x="2715.62" y="4210.14" type="right_before_left"/>
    <node id="4922068422" x="2763.93" y="3965.70" type="priority"/>
    <node id="5041571263" x="1837.58" y="3415.92" type="priority"/>
    <node id="5041571267" x="1887.86" y="3489.37" type="right_before_left"/>
    <node id="5041571268" x="1928.94" y="3501.49" type="priority"/>
    <node id="5041571287" x="350.40" y="3063.78" type="priority"/>
    <node id="5041571291" x="844.68" y="3087.12" type="right_before_left"/>
    <node id="5100811509" x="3373.11" y="4420.61" type="priority"/>
    <node id="5100811520" x="3359.44" y="4389.30" type="priority"/>
    <node id="5100813328" x="3423.38" y="4496.24" type="priority"/>
    <node id="5411184951" x="3731.11" y="4174.70" type="priority"/>
    <node id="5411211627" x="4320.53" y="3512.18" type="priority"/>
    <node id="5411234140" x="2288.64" y="2892.43" type="priority"/>
    <node id="5411234141" x="2364.54" y="2830.91" type="priority"/>
    <node id="5411234144" x="2468.85" y="2746.87" type="priority"/>
    <node id="5411234147" x="1544.60" y="2193.91" type="priority"/>
    <node id="623022038" x="1236.88" y="4297.46" type="priority"/>
    <node id="623022392" x="1225.94" y="4767.34" type="priority"/>
    <node id="623022856" x="1766.29" y="4533.63" type="priority"/>
    <node id="623022934" x="1908.60" y="4661.69" type="priority"/>
    <node id="623023071" x="1874.43" y="5430.28" type="priority"/>
    <node id="631758774" x="2812.43" y="1474.60" type="priority"/>
    <node id="631758806" x="2626.13" y="2172.37" type="priority"/>
    <node id="631758819" x="2952.03" y="2207.69" type="priority"/>
    <node id="631758826" x="2903.14" y="2311.34" type="priority"/>
    <node id="631758978" x="3243.08" y="1509.24" type="priority"/>
    <node id="631758997" x="3294.22" y="1455.14" type="priority"/>
    <node id="631759006" x="3082.24" y="1650.01" type="priority"/>
    <node id="631759031" x="3517.71" y="1584.09" type="priority"/>
    <node id="631759167" x="3331.40" y="1931.23" type="priority"/>
    <node id="631759168" x="3395.73" y="1977.74" type="priority"/>
    <node id="632237184" x="1425.15" y="1837.41" type="priority"/>
    <node id="632237194" x="1568.44" y="2274.84" type="priority"/>
    <node id="632237195" x="1634.73" y="2605.11" type="priority"/>
    <node id="632237200" x="1811.53" y="2823.93" type="priority"/>
    <node id="632237232" x="2012.32" y="3035.00" type="priority"/>
    <node id="632237244" x="2169.00" y="2997.93" type="priority"/>
    <node id="632237248" x="2083.28" y="3110.66" type="traffic_light" tl="GS_632237248"/>
    <node id="632237263" x="2240.26" y="3133.87" type="priority"/>
    <node id="632237270" x="2139.13" y="3145.30" type="priority"/>
    <node id="632237295" x="2618.55" y="2626.61" type="priority"/>
    <node id="632237327" x="2017.17" y="3289.11" type="priority"/>
    <node id="632237329" x="2021.57" y="3323.86" type="priority"/>
    <node id="632237333" x="2020.76" y="3360.46" type="priority"/>
    <node id="632237339" x="2006.93" y="3410.90" type="priority"/>
    <node id="632237341" x="1995.00" y="3449.74" type="priority"/>
    <node id="632237349" x="2106.65" y="3254.48" type="priority"/>
    <node id="632237351" x="1876.74" y="3883.20" type="priority"/>
    <node id="632237359" x="1834.33" y="4035.51" type="priority"/>
    <node id="632237378" x="2349.85" y="3224.79" type="priority"/>
    <node id="632237380" x="2392.47" y="3348.04" type="priority"/>
    <node id="632237412" x="2789.51" y="3753.33" type="priority"/>
    <node id="632237425" x="2992.21" y="3923.57" type="priority"/>
    <node id="632237427" x="3086.75" y="3998.85" type="priority"/>
    <node id="632237443" x="3434.84" y="4272.16" type="priority"/>
    <node id="632237452" x="3427.72" y="4265.25" type="priority"/>
    <node id="632237454" x="3423.77" y="4266.42" type="priority"/>
    <node id="632237483" x="3532.44" y="4313.94" type="priority"/>
    <node id="632237494" x="3421.49" y="4417.55" type="priority"/>
    <node id="632237508" x="3489.21" y="4430.71" type="priority"/>
    <node id="632237511" x="3441.41" y="4485.57" type="priority"/>
    <node id="632240605" x="961.19" y="2503.43" type="priority"/>
    <node id="632240633" x="845.87" y="2595.91" type="priority"/>
    <node id="632662357" x="1083.14" y="2631.66" type="priority"/>
    <node id="632662358" x="1113.51" y="2608.54" type="priority"/>
    <node id="632662365" x="1117.15" y="2640.10" type="right_before_left"/>
    <node id="632662385" x="1220.13" y="2791.20" type="right_before_left"/>
    <node id="632662391" x="1460.91" y="2813.01" type="priority"/>
    <node id="632662408" x="1412.20" y="2971.99" type="priority"/>
    <node id="632662422" x="1332.55" y="2944.13" type="priority"/>
    <node id="632662434" x="1402.32" y="3065.94" type="priority"/>
    <node id="632662437" x="1460.67" y="3094.49" type="priority"/>
    <node id="632662451" x="1335.13" y="3316.72" type="priority"/>
    <node id="632662455" x="1376.41" y="3243.66" type="priority"/>
    <node id="632662459" x="1371.12" y="3371.12" type="priority"/>
    <node id="632662470" x="1280.60" y="3340.91" type="priority"/>
    <node id="632662472" x="1364.74" y="3369.82" type="priority"/>
    <node id="632662482" x="1464.64" y="3406.43" type="right_before_left"/>
    <node id="632662549" x="1316.43" y="3638.01" type="right_before_left"/>
    <node id="632662565" x="1472.31" y="3701.97" type="right_before_left"/>
    <node id="632662568" x="1341.65" y="3737.85" type="priority"/>
    <node id="632662601" x="1259.56" y="3841.94" type="priority"/>
    <node id="632662635" x="1324.40" y="3797.53" type="right_before_left"/>
    <node id="632662653" x="1427.38" y="3801.16" type="right_before_left"/>
    <node id="632662699" x="1836.58" y="2537.20" type="priority"/>
    <node id="632662707" x="2059.26" y="2442.53" type="priority"/>
    <node id="632662726" x="2247.92" y="2384.43" type="right_before_left"/>
    <node id="632662793" x="1659.30" y="2752.77" type="priority"/>
    <node id="632662802" x="1645.92" y="2794.14" type="priority"/>
    <node id="632662808" x="1569.70" y="2839.24" type="priority"/>
    <node id="632662847" x="1694.58" y="2648.34" type="priority"/>
    <node id="632662904" x="1704.00" y="2713.58" type="priority"/>
    <node id="632662907" x="1678.76" y="2735.23" type="priority"/>
    <node id="632662918" x="1720.31" y="2780.10" type="priority"/>
    <node id="632662927" x="1674.34" y="2818.19" type="priority"/>
    <node id="632662952" x="1781.15" y="2794.33" type="priority"/>
    <node id="632662959" x="1608.90" y="2936.12" type="priority"/>
    <node id="632662978" x="1597.17" y="2906.89" type="priority"/>
    <node id="632662996" x="1554.69" y="3078.66" type="priority"/>
    <node id="632663011" x="1497.97" y="3030.97" type="priority"/>
    <node id="632663028" x="1762.47" y="2922.63" type="right_before_left"/>
    <node id="632663065" x="1708.51" y="2865.85" type="priority"/>
    <node id="632663109" x="1862.96" y="2925.73" type="priority"/>
    <node id="632663129" x="1860.84" y="2871.80" type="traffic_light" tl="GS_632663129"/>
    <node id="632663138" x="1810.17" y="2969.15" type="right_before_left"/>
    <node id="632663151" x="1802.88" y="2982.04" type="priority"/>
    <node id="632663166" x="1784.61" y="2996.11" type="right_before_left"/>
    <node id="632663172" x="1830.56" y="3039.37" type="priority"/>
    <node id="632663175" x="1801.77" y="3076.65" type="dead_end"/>
    <node id="632663200" x="1690.01" y="3158.76" type="priority"/>
    <node id="632663250" x="2002.66" y="2634.28" type="priority"/>
    <node id="632663253" x="1899.39" y="2830.49" type="right_before_left"/>
    <node id="632663276" x="2114.29" y="2616.92" type="right_before_left"/>
    <node id="632663281" x="2186.25" y="2578.63" type="right_before_left"/>
    <node id="632663303" x="2167.33" y="2557.47" type="priority"/>
    <node id="632663306" x="1870.44" y="2906.71" type="right_before_left"/>
    <node id="632663316" x="1876.57" y="2895.66" type="priority"/>
    <node id="632663317" x="1961.75" y="2905.50" type="priority"/>
    <node id="632663378" x="2116.41" y="2902.88" type="right_before_left"/>
    <node id="632663382" x="2104.82" y="2883.20" type="priority"/>
    <node id="632663383" x="2145.27" y="2930.08" type="right_before_left"/>
    <node id="632663385" x="2121.92" y="2976.79" type="priority"/>
    <node id="632663398" x="2234.26" y="2889.46" type="priority"/>
    <node id="632663421" x="2397.96" y="2280.85" type="priority"/>
    <node id="632663422" x="2269.37" y="2333.51" type="priority"/>
    <node id="632663427" x="2342.22" y="2469.32" type="right_before_left"/>
    <node id="632663434" x="2471.41" y="2370.60" type="right_before_left"/>
    <node id="632663439" x="2570.08" y="2292.23" type="priority"/>
    <node id="632663446" x="1484.47" y="3176.67" type="priority"/>
    <node id="632663447" x="1660.16" y="3253.86" type="priority"/>
    <node id="632663448" x="1641.45" y="3282.20" type="right_before_left"/>
    <node id="632663450" x="1604.47" y="3261.25" type="priority"/>
    <node id="632663455" x="1496.40" y="3293.57" type="priority"/>
    <node id="632663478" x="1555.56" y="3343.85" type="priority"/>
    <node id="632663482" x="1681.16" y="3191.19" type="priority"/>
    <node id="632663494" x="1509.09" y="3714.75" type="priority"/>
    <node id="632663495" x="1781.63" y="3701.97" type="priority"/>
    <node id="632663499" x="1801.21" y="3694.52" type="priority"/>
    <node id="632663523" x="1897.97" y="3436.50" type="priority"/>
    <node id="632663525" x="1909.69" y="3394.02" type="priority"/>
    <node id="632663527" x="1985.61" y="3307.32" type="priority"/>
    <node id="632663541" x="1570.58" y="3862.11" type="priority"/>
    <node id="632663543" x="1763.12" y="3877.09" type="priority"/>
    <node id="632663553" x="1684.24" y="4364.64" type="priority"/>
    <node id="632663559" x="1765.33" y="4389.59" type="priority"/>
    <node id="634514013" x="2288.92" y="3003.60" type="priority"/>
    <node id="634514053" x="2318.82" y="2867.90" type="priority"/>
    <node id="634514057" x="2413.53" y="2973.05" type="priority"/>
    <node id="634514069" x="2467.21" y="2845.71" type="priority"/>