<?xml version="1.0" encoding="UTF-8"?>

<!-- generated on 2025-04-04 16:24:02 by Eclipse SUMO netconvert Version 1.19.0
<configuration xmlns:xsi="http://www.w3.org/2001/XMLSchema-instance" xsi:noNamespaceSchemaLocation="http://sumo.dlr.de/xsd/netconvertConfiguration.xsd">

    <input>
        <sumo-net-file value="maule/maule.net.xml"/>
    </input>

    <output>
        <output-file value="maule/maule.rou.xml"/>
    </output>

    <processing>
        <geometry.min-radius.fix.railways value="false"/>
        <geometry.max-grade.fix value="false"/>
        <offset.disable-normalization value="true"/>
        <lefthand value="0"/>
    </processing>

    <tls_building>
        <tls.ignore-internal-junction-jam value="1"/>
    </tls_building>

    <junctions>
        <no-turnarounds value="true"/>
        <junctions.corner-detail value="5"/>
        <junctions.limit-turn-speed value="5.50"/>
        <rectangular-lane-cut value="0"/>
    </junctions>

    <pedestrian>
        <walkingareas value="0"/>
    </pedestrian>

</configuration>
-->

<net version="1.16" junctionCornerDetail="5" limitTurnSpeed="5.50" tlsIgnoreInternalJunctionJam="1" xmlns:xsi="http://www.w3.org/2001/XMLSchema-instance" xsi:noNamespaceSchemaLocation="http://sumo.dlr.de/xsd/net_file.xsd">

    <location netOffset="-413953.69,-5415055.77" convBoundary="0.00,0.00,5312.17,5430.28" origBoundary="1.826328,48.851433,1.898033,48.931577" projParameter="+proj=utm +zone=31 +ellps=WGS84 +datum=WGS84 +units=m +no_defs"/>

    <type id="highway.footway" priority="1" numLanes="1" speed="2.78" allow="pedestrian" oneway="1" width="2.00"/>
    <type id="highway.living_street" priority="2" numLanes="1" speed="2.78" disallow="tram rail_urban rail rail_electric rail_fast ship" oneway="0"/>
    <type id="highway.path" priority="1" numLanes="1" speed="5.56" allow="pedestrian bicycle" oneway="0" width="2.00"/>
    <type id="highway.primary" priority="12" numLanes="2" speed="27.78" disallow="tram rail_urban rail rail_electric rail_fast ship" oneway="0"/>
    <type id="highway.primary_link" priority="7" numLanes="1" speed="22.22" disallow="tram rail_urban rail rail_electric rail_fast ship" oneway="0"/>
    <type id="highway.residential" priority="3" numLanes="1" speed="13.89" disallow="tram rail_urban rail rail_electric rail_fast ship" oneway="0"/>
    <type id="highway.secondary" priority="11" numLanes="1" speed="27.78" disallow="tram rail_urban rail rail_electric rail_fast ship" oneway="0"/>
    <type id="highway.service" priority="1" numLanes="1" speed="5.56" allow="pedestrian delivery bicycle" oneway="0"/>
    <type id="highway.steps" priority="1" numLanes="1" speed="1.39" allow="pedestrian" oneway="1" width="2.00"/>
    <type id="highway.tertiary" priority="10" numLanes="1" speed="22.22" disallow="tram rail_urban rail rail_electric rail_fast ship" oneway="0"/>
    <type id="highway.track" priority="1" numLanes="1" speed="5.56" allow="pedestrian motorcycle moped bicycle" oneway="0"/>
    <type id="highway.unclassified" priority="4" numLanes="1" speed="13.89" disallow="tram rail_urban rail rail_electric rail_fast ship" oneway="0"/>

    <edge id=":10079588877_0" function="internal">
        <lane id=":10079588877_0_0" index="0" allow="pedestrian delivery bicycle" speed="3.65" length="4.67" shape="2301.53,3418.52 2300.08,3418.51 2299.31,3418.06 2299.21,3417.17 2299.77,3415.84"/>
    </edge>
    <edge id=":10079588881_0" function="internal">
        <lane id=":10079588881_0_0" index="0" allow="pedestrian delivery bicycle" speed="3.65" length="4.67" shape="2433.50,3375.27 2433.73,3376.69 2433.42,3377.53 2432.56,3377.78 2431.16,3377.45"/>
    </edge>
    <edge id=":10103013142_0" function="internal">
        <lane id=":10103013142_0_0" index="0" disallow="tram rail_urban rail rail_electric rail_fast ship" speed="13.89" length="9.40" shape="2624.43,3027.27 2616.78,3021.82"/>
    </edge>
    <edge id=":10103013142_1" function="internal">
        <lane id=":10103013142_1_0" index="0" allow="pedestrian delivery bicycle" speed="6.86" length="3.27" shape="2624.43,3027.27 2622.42,3025.35 2622.22,3024.91"/>
    </edge>
    <edge id=":10103013142_7" function="internal">
        <lane id=":10103013142_7_0" index="0" allow="pedestrian delivery bicycle" speed="6.86" length="6.90" shape="2622.22,3024.91 2621.50,3023.25 2621.68,3020.96 2622.96,3018.48"/>
    </edge>
    <edge id=":10103013142_2" function="internal">
        <lane id=":10103013142_2_0" index="0" allow="pedestrian delivery bicycle" speed="5.04" length="5.00" shape="2625.56,3020.34 2624.93,3021.56 2624.84,3022.68 2625.30,3023.72 2626.29,3024.66"/>
    </edge>
    <edge id=":10103013142_3" function="internal">
        <lane id=":10103013142_3_0" index="0" allow="pedestrian delivery bicycle" speed="6.86" length="10.16" shape="2625.56,3020.34 2623.64,3022.36 2621.54,3023.28 2619.25,3023.10 2616.78,3021.82"/>
    </edge>
    <edge id=":10103013142_4" function="internal">
        <lane id=":10103013142_4_0" index="0" allow="pedestrian delivery bicycle" speed="3.65" length="4.67" shape="2625.56,3020.34 2624.22,3020.85 2623.33,3020.71 2622.91,3019.92 2622.96,3018.48"/>
    </edge>
    <edge id=":10103013142_5" function="internal">
        <lane id=":10103013142_5_0" index="0" allow="pedestrian delivery bicycle" speed="5.04" length="5.00" shape="2618.63,3019.21 2619.85,3019.84 2620.98,3019.93 2622.01,3019.48 2622.96,3018.48"/>
    </edge>
    <edge id=":10103013142_6" function="internal">
        <lane id=":10103013142_6_0" index="0" disallow="tram rail_urban rail rail_electric rail_fast ship" speed="13.89" length="9.40" shape="2618.63,3019.21 2626.29,3024.66"/>
    </edge>
    <edge id=":10103013145_0" function="internal">
        <lane id=":10103013145_0_0" index="0" allow="pedestrian delivery bicycle" speed="3.65" length="4.67" shape="2665.54,2951.61 2666.42,2950.47 2667.25,2950.12 2668.02,2950.58 2668.74,2951.83"/>
    </edge>
    <edge id=":10103013147_0" function="internal">
        <lane id=":10103013147_0_0" index="0" allow="pedestrian delivery bicycle" speed="3.65" length="4.67" shape="2528.75,2931.69 2530.12,2931.23 2530.99,2931.41 2531.38,2932.22 2531.27,2933.65"/>
    </edge>
    <edge id=":10173767251_0" function="internal">
        <lane id=":10173767251_0_0" index="0" allow="pedestrian delivery bicycle" speed="13.89" length="5.01" shape="2303.29,2917.30 2299.63,2920.72"/>
    </edge>
    <edge id=":10173767251_1" function="internal">
        <lane id=":10173767251_1_0" index="0" allow="pedestrian delivery bicycle" speed="3.65" length="1.44" shape="2303.29,2917.30 2301.86,2917.53"/>
    </edge>
    <edge id=":10173767251_4" function="internal">
        <lane id=":10173767251_4_0" index="0" allow="pedestrian delivery bicycle" speed="3.65" length="3.23" shape="2301.86,2917.53 2301.03,2917.22 2300.77,2916.36 2301.11,2914.96"/>
    </edge>
    <edge id=":10173767251_2" function="internal">
        <lane id=":10173767251_2_0" index="0" allow="pedestrian delivery bicycle" speed="13.89" length="5.02" shape="2297.44,2918.39 2301.11,2914.96"/>
    </edge>
    <edge id=":10173767251_3" function="internal">
        <lane id=":10173767251_3_0" index="0" allow="pedestrian delivery bicycle" speed="3.65" length="1.44" shape="2297.44,2918.39 2298.86,2918.15"/>
    </edge>
    <edge id=":10173767251_5" function="internal">
        <lane id=":10173767251_5_0" index="0" allow="pedestrian delivery bicycle" speed="3.65" length="3.23" shape="2298.86,2918.15 2299.70,2918.46 2299.96,2919.32 2299.63,2920.72"/>
    </edge>
    <edge id=":10173767291_0" function="internal">
        <lane id=":10173767291_0_0" index="0" allow="pedestrian delivery bicycle" speed="3.65" length="4.67" shape="2314.89,2902.11 2316.31,2901.88 2317.15,2902.19 2317.40,2903.05 2317.07,2904.45"/>
    </edge>
    <edge id=":10207084116_0" function="internal">
        <lane id=":10207084116_0_0" index="0" allow="pedestrian delivery bicycle" speed="13.89" length="4.61" shape="2288.10,2931.47 2284.73,2934.61"/>
    </edge>
    <edge id=":10207084116_1" function="internal">
        <lane id=":10207084116_1_0" index="0" allow="pedestrian delivery bicycle" speed="3.65" length="1.44" shape="2288.10,2931.47 2286.68,2931.70"/>
    </edge>
    <edge id=":10207084116_4" function="internal">
        <lane id=":10207084116_4_0" index="0" allow="pedestrian delivery bicycle" speed="3.65" length="3.23" shape="2286.68,2931.70 2285.84,2931.39 2285.59,2930.53 2285.93,2929.13"/>
    </edge>
    <edge id=":10207084116_2" function="internal">
        <lane id=":10207084116_2_0" index="0" allow="pedestrian delivery bicycle" speed="13.89" length="4.63" shape="2282.54,2932.28 2285.93,2929.13"/>
    </edge>
    <edge id=":10207084116_3" function="internal">
        <lane id=":10207084116_3_0" index="0" allow="pedestrian delivery bicycle" speed="3.65" length="1.44" shape="2282.54,2932.28 2283.96,2932.04"/>
    </edge>
    <edge id=":10207084116_5" function="internal">
        <lane id=":10207084116_5_0" index="0" allow="pedestrian delivery bicycle" speed="3.65" length="3.23" shape="2283.96,2932.04 2284.80,2932.35 2285.06,2933.21 2284.73,2934.61"/>
    </edge>
    <edge id=":10207092917_0" function="internal">
        <lane id=":10207092917_0_0" index="0" allow="pedestrian delivery bicycle" speed="3.65" length="4.67" shape="2284.58,2934.75 2283.16,2934.99 2282.32,2934.68 2282.07,2933.82 2282.39,2932.42"/>
    </edge>
    <edge id=":10221085718_0" function="internal">
        <lane id=":10221085718_0_0" index="0" allow="pedestrian delivery bicycle" speed="5.98" length="5.12" shape="2015.43,3321.53 2014.55,3321.44 2013.53,3321.78 2012.37,3322.55 2011.06,3323.74"/>
    </edge>
    <edge id=":10221085718_1" function="internal">
        <lane id=":10221085718_1_0" index="0" disallow="tram rail_urban rail rail_electric rail_fast ship" speed="13.89" length="5.67" shape="2015.43,3321.53 2010.13,3319.52"/>
    </edge>
    <edge id=":10221085724_0" function="internal">
        <lane id=":10221085724_0_0" index="0" disallow="tram rail_urban rail rail_electric rail_fast ship" speed="13.89" length="5.14" shape="1993.44,3311.93 1989.01,3309.33"/>
    </edge>
    <edge id=":10221085724_1" function="internal">
        <lane id=":10221085724_1_0" index="0" allow="pedestrian delivery bicycle" speed="4.80" length="4.24" shape="1989.22,3313.14 1989.76,3311.85 1989.90,3310.78 1989.65,3309.94 1989.01,3309.33"/>
    </edge>
    <edge id=":10243327512_0" function="internal">
        <lane id=":10243327512_0_0" index="0" disallow="tram rail_urban rail rail_electric rail_fast ship" speed="22.22" length="9.40" shape="1837.74,4041.26 1835.29,4050.33"/>
        <lane id=":10243327512_0_1" index="1" disallow="tram rail_urban rail rail_electric rail_fast ship" speed="22.22" length="9.40" shape="1834.66,4040.42 1832.20,4049.49"/>
    </edge>
    <edge id=":10243327512_2" function="internal">
        <lane id=":10243327512_2_0" index="0" allow="pedestrian delivery bicycle" speed="7.61" length="2.93" shape="1834.66,4040.42 1833.32,4043.03"/>
    </edge>
    <edge id=":10243327512_9" function="internal">
        <lane id=":10243327512_9_0" index="0" allow="pedestrian delivery bicycle" speed="7.61" length="10.16" shape="1833.32,4043.03 1831.05,4044.48 1827.84,4044.77 1823.68,4043.91"/>
    </edge>
    <edge id=":10243327512_3" function="internal">
        <lane id=":10243327512_3_0" index="0" allow="pedestrian delivery bicycle" speed="5.00" length="5.04" shape="1824.63,4040.86 1826.01,4041.08 1827.10,4040.80 1827.93,4040.02 1828.48,4038.75"/>
    </edge>
    <edge id=":10243327512_4" function="internal">
        <lane id=":10243327512_4_0" index="0" allow="pedestrian delivery bicycle" speed="7.73" length="12.81" shape="1824.63,4040.86 1828.53,4042.46 1831.09,4044.44 1832.31,4046.78 1832.20,4049.49"/>
    </edge>
    <edge id=":10243327512_5" function="internal">
        <lane id=":10243327512_5_0" index="0" allow="pedestrian delivery bicycle" speed="3.65" length="4.67" shape="1824.63,4040.86 1825.54,4041.98 1825.69,4042.86 1825.07,4043.51 1823.68,4043.91"/>
    </edge>
    <edge id=":10243327512_6" function="internal">
        <lane id=":10243327512_6_0" index="0" allow="pedestrian delivery bicycle" speed="5.17" length="5.15" shape="1826.02,4047.82 1826.17,4046.48 1825.83,4045.38 1825.00,4044.52 1823.68,4043.91"/>
    </edge>
    <edge id=":10243327512_7" function="internal">
        <lane id=":10243327512_7_0" index="0" disallow="tram rail_urban rail rail_electric rail_fast ship" speed="22.22" length="9.40" shape="1826.02,4047.82 1828.48,4038.75"/>
        <lane id=":10243327512_7_1" index="1" disallow="tram rail_urban rail rail_electric rail_fast ship" speed="22.22" length="9.40" shape="1829.11,4048.66 1831.57,4039.58"/>
    </edge>
    <edge id=":10243327516_0" function="internal">
        <lane id=":10243327516_0_0" index="0" allow="pedestrian delivery bicycle" speed="3.65" length="4.67" shape="1718.41,4019.51 1717.32,4018.55 1717.03,4017.71 1717.54,4016.97 1718.83,4016.33"/>
    </edge>
    <edge id=":10253596308_0" function="internal">
        <lane id=":10253596308_0_0" index="0" disallow="tram rail_urban rail rail_electric rail_fast ship" speed="13.89" length="7.27" shape="3428.56,4246.78 3427.94,4254.03"/>
    </edge>
    <edge id=":10253596308_1" function="internal">
        <lane id=":10253596308_1_0" index="0" disallow="tram rail_urban rail rail_electric rail_fast ship" speed="3.65" length="4.67" shape="3428.56,4246.78 3427.66,4247.91 3426.83,4248.24 3426.07,4247.77 3425.38,4246.51"/>
    </edge>
    <edge id=":10253596308_2" function="internal">
        <lane id=":10253596308_2_0" index="0" disallow="tram rail_urban rail rail_electric rail_fast ship" speed="7.61" length="7.00" shape="3420.79,4251.48 3422.71,4250.27 3424.12,4249.04 3425.01,4247.78 3425.38,4246.51"/>
    </edge>
    <edge id=":10253596308_3" function="internal">
        <lane id=":10253596308_3_0" index="0" disallow="tram rail_urban rail rail_electric rail_fast ship" speed="13.89" length="7.27" shape="3424.75,4253.75 3425.38,4246.51"/>
    </edge>
    <edge id=":10253596308_4" function="internal">
        <lane id=":10253596308_4_0" index="0" disallow="tram rail_urban rail rail_electric rail_fast ship" speed="3.65" length="4.67" shape="3424.75,4253.75 3425.65,4252.62 3426.48,4252.29 3427.24,4252.76 3427.94,4254.03"/>
    </edge>
    <edge id=":10257637728_0" function="internal">
        <lane id=":10257637728_0_0" index="0" disallow="tram rail_urban rail rail_electric rail_fast ship" speed="13.89" length="14.72" shape="3626.85,4587.78 3615.07,4578.95"/>
    </edge>
    <edge id=":10257637728_1" function="internal">
        <lane id=":10257637728_1_0" index="0" disallow="tram rail_urban rail rail_electric rail_fast ship" speed="7.56" length="15.53" shape="3626.85,4587.78 3623.68,4584.62 3622.66,4581.49 3623.76,4578.39 3627.00,4575.31"/>
    </edge>
    <edge id=":10257637728_2" function="internal">
        <lane id=":10257637728_2_0" index="0" disallow="tram rail_urban rail rail_electric rail_fast ship" speed="3.65" length="4.67" shape="3626.85,4587.78 3626.37,4586.42 3626.53,4585.54 3627.33,4585.14 3628.77,4585.22"/>
    </edge>
    <edge id=":10257637728_3" function="internal">
        <lane id=":10257637728_3_0" index="0" disallow="tram rail_urban rail rail_electric rail_fast ship" speed="5.94" length="9.09" shape="3628.86,4577.91 3626.96,4579.72 3626.31,4581.53 3626.91,4583.37 3628.77,4585.22"/>
    </edge>
    <edge id=":10257637728_4" function="internal">
        <lane id=":10257637728_4_0" index="0" disallow="tram rail_urban rail rail_electric rail_fast ship" speed="9.29" length="14.88" shape="3628.86,4577.91 3625.08,4580.06 3621.52,4580.94 3618.18,4580.57 3615.07,4578.95"/>
    </edge>
    <edge id=":10257637728_5" function="internal">
        <lane id=":10257637728_5_0" index="0" disallow="tram rail_urban rail rail_electric rail_fast ship" speed="3.65" length="4.67" shape="3628.86,4577.91 3627.42,4577.96 3626.63,4577.54 3626.49,4576.65 3627.00,4575.31"/>
    </edge>
    <edge id=":10257637728_6" function="internal">
        <lane id=":10257637728_6_0" index="0" disallow="tram rail_urban rail rail_electric rail_fast ship" speed="7.99" length="10.82" shape="3616.99,4576.39 3619.17,4577.48 3621.56,4577.67 3624.17,4576.94 3627.00,4575.31"/>
    </edge>
    <edge id=":10257637728_7" function="internal">
        <lane id=":10257637728_7_0" index="0" disallow="tram rail_urban rail rail_electric rail_fast ship" speed="13.89" length="14.72" shape="3616.99,4576.39 3628.77,4585.22"/>
    </edge>
    <edge id=":10257637728_8" function="internal">
        <lane id=":10257637728_8_0" index="0" disallow="tram rail_urban rail rail_electric rail_fast ship" speed="3.65" length="4.67" shape="3616.99,4576.39 3617.47,4577.75 3617.31,4578.63 3616.51,4579.03 3615.07,4578.95"/>
    </edge>
    <edge id=":10257637734_0" function="internal">
        <lane id=":10257637734_0_0" index="0" disallow="tram rail_urban rail rail_electric rail_fast ship" speed="3.65" length="4.67" shape="3622.12,4488.11 3621.91,4486.68 3622.24,4485.85 3623.11,4485.61 3624.50,4485.97"/>
    </edge>
    <edge id=":10275471708_0" function="internal">
        <lane id=":10275471708_0_0" index="0" allow="pedestrian delivery bicycle" speed="4.87" length="5.70" shape="1335.21,3652.36 1333.79,3651.71 1332.62,3651.81 1331.71,3652.65 1331.04,3654.24"/>
    </edge>
    <edge id=":10275471708_1" function="internal">
        <lane id=":10275471708_1_0" index="0" disallow="tram rail_urban rail rail_electric rail_fast ship" speed="8.33" length="9.71" shape="1335.21,3652.36 1327.11,3647.00"/>
    </edge>
    <edge id=":10275471708_2" function="internal">
        <lane id=":10275471708_2_0" index="0" disallow="tram rail_urban rail rail_electric rail_fast ship" speed="8.33" length="9.71" shape="1328.88,3644.33 1336.98,3649.69"/>
    </edge>
    <edge id=":10275471708_3" function="internal">
        <lane id=":10275471708_3_0" index="0" allow="pedestrian delivery bicycle" speed="6.95" length="2.73" shape="1328.88,3644.33 1330.56,3645.98 1330.71,3646.32"/>
    </edge>
    <edge id=":10275471708_7" function="internal">
        <lane id=":10275471708_7_0" index="0" allow="pedestrian delivery bicycle" speed="6.95" length="8.13" shape="1330.71,3646.32 1331.49,3648.18 1331.65,3650.93 1331.04,3654.24"/>
    </edge>
    <edge id=":10275471708_4" function="internal">
        <lane id=":10275471708_4_0" index="0" allow="pedestrian delivery bicycle" speed="5.83" length="5.35" shape="1328.39,3651.81 1328.66,3650.25 1328.53,3648.93 1328.02,3647.85 1327.11,3647.00"/>
    </edge>
    <edge id=":10275471708_5" function="internal">
        <lane id=":10275471708_5_0" index="0" allow="pedestrian delivery bicycle" speed="6.45" length="10.99" shape="1328.39,3651.81 1329.61,3649.20 1331.44,3647.98 1333.90,3648.14 1336.98,3649.69"/>
    </edge>
    <edge id=":10275471708_6" function="internal">
        <lane id=":10275471708_6_0" index="0" allow="pedestrian delivery bicycle" speed="3.80" length="5.25" shape="1328.39,3651.81 1329.96,3651.42 1330.93,3651.70 1331.29,3652.64 1331.04,3654.24"/>
    </edge>
    <edge id=":10275499610_0" function="internal">
        <lane id=":10275499610_0_0" index="0" allow="pedestrian delivery bicycle" speed="3.65" length="4.67" shape="1328.71,3662.72 1327.62,3663.67 1326.75,3663.84 1326.08,3663.25 1325.63,3661.88"/>
    </edge>
    <edge id=":10275499611_0" function="internal">
        <lane id=":10275499611_0_0" index="0" allow="pedestrian delivery bicycle" speed="3.65" length="4.67" shape="1411.58,3689.08 1410.46,3689.98 1409.57,3690.11 1408.93,3689.49 1408.54,3688.10"/>
    </edge>
    <edge id=":10278720298_0" function="internal">
        <lane id=":10278720298_0_0" index="0" allow="pedestrian motorcycle moped bicycle" speed="5.56" length="14.67" shape="3963.91,2476.99 3951.05,2484.04"/>
    </edge>
    <edge id=":10278720298_1" function="internal">
        <lane id=":10278720298_1_0" index="0" allow="pedestrian motorcycle moped bicycle" speed="5.56" length="14.41" shape="3963.91,2476.99 3960.36,2478.41 3957.12,2478.34 3954.20,2476.77 3951.58,2473.71"/>
    </edge>
    <edge id=":10278720298_2" function="internal">
        <lane id=":10278720298_2_0" index="0" allow="pedestrian motorcycle moped bicycle" speed="3.65" length="4.67" shape="3963.91,2476.99 3962.47,2476.90 3961.72,2476.42 3961.67,2475.52 3962.30,2474.23"/>
    </edge>
    <edge id=":10278720298_3" function="internal">
        <lane id=":10278720298_3_0" index="0" allow="pedestrian motorcycle moped bicycle" speed="5.56" length="9.41" shape="3954.27,2471.98 3955.99,2474.01 3957.90,2475.06 3960.01,2475.13 3962.30,2474.23"/>
    </edge>
    <edge id=":10278720298_4" function="internal">
        <lane id=":10278720298_4_0" index="0" allow="pedestrian motorcycle moped bicycle" speed="5.56" length="14.58" shape="3954.27,2471.98 3955.96,2475.66 3955.99,2478.90 3954.35,2481.69 3951.05,2484.04"/>
    </edge>
    <edge id=":10278720298_5" function="internal">
        <lane id=":10278720298_5_0" index="0" allow="pedestrian motorcycle moped bicycle" speed="3.65" length="4.67" shape="3954.27,2471.98 3954.25,2473.42 3953.79,2474.19 3952.90,2474.29 3951.58,2473.71"/>
    </edge>
    <edge id=":10278720298_6" function="internal">
        <lane id=":10278720298_6_0" index="0" allow="pedestrian motorcycle moped bicycle" speed="5.56" length="9.04" shape="3949.59,2481.20 3951.63,2479.74 3952.65,2478.01 3952.63,2476.00 3951.58,2473.71"/>
    </edge>
    <edge id=":10278720298_7" function="internal">
        <lane id=":10278720298_7_0" index="0" allow="pedestrian motorcycle moped bicycle" speed="5.56" length="14.50" shape="3949.59,2481.20 3962.30,2474.23"/>
    </edge>
    <edge id=":10278720298_8" function="internal">
        <lane id=":10278720298_8_0" index="0" allow="pedestrian motorcycle moped bicycle" speed="3.65" length="4.67" shape="3949.59,2481.20 3951.02,2481.36 3951.74,2481.89 3951.75,2482.78 3951.05,2484.04"/>
    </edge>
    <edge id=":10280336784_0" function="internal">
        <lane id=":10280336784_0_0" index="0" allow="pedestrian motorcycle moped bicycle" speed="3.65" length="4.67" shape="2763.06,4090.03 2764.26,4089.23 2765.15,4089.16 2765.74,4089.84 2766.02,4091.25"/>
    </edge>
    <edge id=":10282649822_0" function="internal">
        <lane id=":10282649822_0_0" index="0" allow="pedestrian motorcycle moped bicycle" speed="5.56" length="5.02" shape="2471.82,4428.11 2470.16,4432.85"/>
    </edge>
    <edge id=":10282649822_1" function="internal">
        <lane id=":10282649822_1_0" index="0" allow="pedestrian motorcycle moped bicycle" speed="3.65" length="1.44" shape="2471.82,4428.11 2470.67,4428.98"/>
    </edge>
    <edge id=":10282649822_4" function="internal">
        <lane id=":10282649822_4_0" index="0" allow="pedestrian motorcycle moped bicycle" speed="3.65" length="3.23" shape="2470.67,4428.98 2469.78,4429.09 2469.16,4428.45 2468.80,4427.06"/>
    </edge>
    <edge id=":10282649822_2" function="internal">
        <lane id=":10282649822_2_0" index="0" allow="pedestrian motorcycle moped bicycle" speed="5.56" length="5.02" shape="2467.14,4431.79 2468.80,4427.06"/>
    </edge>
    <edge id=":10282649822_3" function="internal">
        <lane id=":10282649822_3_0" index="0" allow="pedestrian motorcycle moped bicycle" speed="3.65" length="1.44" shape="2467.14,4431.79 2468.29,4430.93"/>
    </edge>
    <edge id=":10282649822_5" function="internal">
        <lane id=":10282649822_5_0" index="0" allow="pedestrian motorcycle moped bicycle" speed="3.65" length="3.23" shape="2468.29,4430.93 2469.18,4430.81 2469.80,4431.45 2470.16,4432.85"/>
    </edge>
    <edge id=":10282649869_0" function="internal">
        <lane id=":10282649869_0_0" index="0" allow="pedestrian motorcycle moped bicycle" speed="22.22" length="14.76" shape="3541.06,3102.33 3540.25,3087.59"/>
    </edge>
    <edge id=":10282649869_1" function="internal">
        <lane id=":10282649869_1_0" index="0" allow="pedestrian motorcycle moped bicycle" speed="7.54" length="4.51" shape="3541.06,3102.33 3541.44,3097.84"/>
    </edge>
    <edge id=":10282649869_2" function="internal">
        <lane id=":10282649869_2_0" index="0" allow="pedestrian motorcycle moped bicycle" speed="3.65" length="1.44" shape="3541.06,3102.33 3541.79,3101.09"/>
    </edge>
    <edge id=":10282649869_9" function="internal">
        <lane id=":10282649869_9_0" index="0" allow="pedestrian motorcycle moped bicycle" speed="7.54" length="11.11" shape="3541.44,3097.84 3543.19,3095.04 3546.30,3093.93 3550.77,3094.53"/>
    </edge>
    <edge id=":10282649869_10" function="internal">
        <lane id=":10282649869_10_0" index="0" allow="pedestrian motorcycle moped bicycle" speed="3.65" length="3.23" shape="3541.79,3101.09 3542.57,3100.64 3543.39,3101.00 3544.25,3102.15"/>
    </edge>
    <edge id=":10282649869_3" function="internal">
        <lane id=":10282649869_3_0" index="0" allow="pedestrian motorcycle moped bicycle" speed="5.92" length="9.10" shape="3549.91,3097.61 3547.31,3097.26 3545.50,3097.91 3544.48,3099.54 3544.25,3102.15"/>
    </edge>
    <edge id=":10282649869_4" function="internal">
        <lane id=":10282649869_4_0" index="0" allow="pedestrian motorcycle moped bicycle" speed="9.39" length="14.94" shape="3549.91,3097.61 3545.84,3096.01 3542.87,3093.81 3541.00,3091.01 3540.25,3087.59"/>
    </edge>
    <edge id=":10282649869_5" function="internal">
        <lane id=":10282649869_5_0" index="0" allow="pedestrian motorcycle moped bicycle" speed="3.65" length="4.67" shape="3549.91,3097.61 3548.97,3096.51 3548.80,3095.64 3549.40,3094.97 3550.77,3094.53"/>
    </edge>
    <edge id=":10282649869_6" function="internal">
        <lane id=":10282649869_6_0" index="0" allow="pedestrian motorcycle moped bicycle" speed="8.10" length="10.94" shape="3543.44,3087.42 3544.01,3089.79 3545.42,3091.76 3547.67,3093.34 3550.77,3094.53"/>
    </edge>
    <edge id=":10282649869_7" function="internal">
        <lane id=":10282649869_7_0" index="0" allow="pedestrian motorcycle moped bicycle" speed="22.22" length="14.76" shape="3543.44,3087.42 3544.25,3102.15"/>
    </edge>
    <edge id=":10282649869_8" function="internal">
        <lane id=":10282649869_8_0" index="0" allow="pedestrian motorcycle moped bicycle" speed="3.65" length="1.44" shape="3543.44,3087.42 3542.71,3088.66"/>
    </edge>
    <edge id=":10282649869_11" function="internal">
        <lane id=":10282649869_11_0" index="0" allow="pedestrian motorcycle moped bicycle" speed="3.65" length="3.23" shape="3542.71,3088.66 3541.93,3089.10 3541.11,3088.75 3540.25,3087.59"/>
    </edge>
    <edge id=":10282649870_0" function="internal">
        <lane id=":10282649870_0_0" index="0" allow="pedestrian motorcycle moped bicycle" speed="5.56" length="14.36" shape="3664.02,3129.90 3650.31,3125.65"/>
    </edge>
    <edge id=":10282649870_1" function="internal">
        <lane id=":10282649870_1_0" index="0" allow="pedestrian motorcycle moped bicycle" speed="5.56" length="15.14" shape="3664.02,3129.90 3660.18,3127.97 3658.19,3125.37 3658.05,3122.09 3659.76,3118.15"/>
    </edge>
    <edge id=":10282649870_2" function="internal">
        <lane id=":10282649870_2_0" index="0" allow="pedestrian motorcycle moped bicycle" speed="3.65" length="4.67" shape="3664.02,3129.90 3663.13,3128.76 3663.01,3127.87 3663.64,3127.24 3665.03,3126.86"/>
    </edge>
    <edge id=":10282649870_3" function="internal">
        <lane id=":10282649870_3_0" index="0" allow="pedestrian motorcycle moped bicycle" speed="5.56" length="9.07" shape="3662.48,3119.83 3661.46,3122.19 3661.54,3124.15 3662.73,3125.71 3665.03,3126.86"/>
    </edge>
    <edge id=":10282649870_4" function="internal">
        <lane id=":10282649870_4_0" index="0" allow="pedestrian motorcycle moped bicycle" speed="5.56" length="14.60" shape="3662.48,3119.83 3659.91,3123.14 3657.02,3125.22 3653.82,3126.05 3650.31,3125.65"/>
    </edge>
    <edge id=":10282649870_5" function="internal">
        <lane id=":10282649870_5_0" index="0" allow="pedestrian motorcycle moped bicycle" speed="3.65" length="4.67" shape="3662.48,3119.83 3661.17,3120.43 3660.28,3120.35 3659.81,3119.59 3659.76,3118.15"/>
    </edge>
    <edge id=":10282649870_6" function="internal">
        <lane id=":10282649870_6_0" index="0" allow="pedestrian motorcycle moped bicycle" speed="5.56" length="10.43" shape="3651.17,3122.56 3653.58,3122.81 3655.82,3122.16 3657.88,3120.61 3659.76,3118.15"/>
    </edge>
    <edge id=":10282649870_7" function="internal">
        <lane id=":10282649870_7_0" index="0" allow="pedestrian motorcycle moped bicycle" speed="5.56" length="14.52" shape="3651.17,3122.56 3665.03,3126.86"/>
    </edge>
    <edge id=":10282649870_8" function="internal">
        <lane id=":10282649870_8_0" index="0" allow="pedestrian motorcycle moped bicycle" speed="3.65" length="4.67" shape="3651.17,3122.56 3652.11,3123.66 3652.28,3124.54 3651.68,3125.20 3650.31,3125.65"/>
    </edge>
    <edge id=":10282649874_0" function="internal">
        <lane id=":10282649874_0_0" index="0" allow="pedestrian motorcycle moped bicycle" speed="5.56" length="10.84" shape="3913.82,3205.84 3913.28,3203.46 3911.89,3201.49 3909.67,3199.93 3906.60,3198.78"/>
    </edge>
    <edge id=":10282649874_1" function="internal">
        <lane id=":10282649874_1_0" index="0" allow="pedestrian motorcycle moped bicycle" speed="5.56" length="14.73" shape="3913.82,3205.84 3913.13,3191.13"/>
    </edge>
    <edge id=":10282649874_2" function="internal">
        <lane id=":10282649874_2_0" index="0" allow="pedestrian motorcycle moped bicycle" speed="3.65" length="4.67" shape="3913.82,3205.84 3914.56,3204.60 3915.34,3204.16 3916.16,3204.53 3917.02,3205.69"/>
    </edge>
    <edge id=":10282649874_3" function="internal">
        <lane id=":10282649874_3_0" index="0" allow="pedestrian motorcycle moped bicycle" speed="5.56" length="14.73" shape="3916.32,3190.98 3917.02,3205.69"/>
    </edge>