<?xml version="1.0" encoding="UTF-8"?>

<!-- generated on 2025-04-09 04:00:34 by Eclipse SUMO netconvert Version 1.19.0
<configuration xmlns:xsi="http://www.w3.org/2001/XMLSchema-instance" xsi:noNamespaceSchemaLocation="http://sumo.dlr.de/xsd/netconvertConfiguration.xsd">

    <input>
        <sumo-net-file value="maule/maule.net.xml"/>
    </input>

    <output>
        <plain-output-prefix value="maule/maule"/>
    </output>

    <processing>
        <geometry.min-radius.fix.railways value="false"/>
        <geometry.max-grade.fix value="false"/>
        <offset.disable-normalization value="true"/>
        <lefthand value="0"/>
    </processing>

    <tls_building>
        <tls.ignore-internal-junction-jam value="1"/>
    </tls_building>

    <junctions>
        <no-turnarounds value="true"/>
        <junctions.corner-detail value="5"/>
        <junctions.limit-turn-speed value="5.50"/>
        <rectangular-lane-cut value="0"/>
    </junctions>

    <pedestrian>
        <walkingareas value="0"/>
    </pedestrian>

</configuration>
-->

<nodes version="1.16" xmlns:xsi="http://www.w3.org/2001/XMLSchema-instance" xsi:noNamespaceSchemaLocation="http://sumo.dlr.de/xsd/nodes_file.xsd">
    <location netOffset="-411804.16,-5411541.15" convBoundary="0.00,0.00,7461.70,8944.89" origBoundary="1.796001,48.851433,1.898033,48.931577" projParameter="+proj=utm +zone=31 +ellps=WGS84 +datum=WGS84 +units=m +no_defs"/>

    <node id="10079588877" x="4450.18" y="6931.80" type="priority"/>
    <node id="10079588881" x="4581.86" y="6890.97" type="priority"/>
    <node id="10103013142" x="4771.06" y="6537.86" type="priority"/>
    <node id="10103013145" x="4816.67" y="6466.34" type="priority"/>
    <node id="10103013147" x="4679.54" y="6447.29" type="priority"/>
    <node id="10173767251" x="4449.83" y="6432.51" type="priority"/>
    <node id="10173767252" x="4451.01" y="6444.40" type="dead_end"/>
    <node id="10173767253" x="4452.39" y="6445.68" type="dead_end"/>
    <node id="10173767276" x="4503.33" y="6437.87" type="dead_end"/>
    <node id="10173767277" x="4486.22" y="6421.66" type="dead_end"/>
    <node id="10173767290" x="4441.01" y="6453.61" type="dead_end"/>
    <node id="10173767291" x="4465.51" y="6417.89" type="priority"/>
    <node id="10173767300" x="4307.49" y="6672.38" type="dead_end"/>
    <node id="10207084116" x="4434.71" y="6446.61" type="priority"/>
    <node id="10207092917" x="4433.30" y="6447.93" type="priority"/>
    <node id="10221074405" x="3903.45" y="6418.04" type="dead_end"/>
    <node id="10221074406" x="3907.74" y="6418.53" type="dead_end"/>
    <node id="10221085718" x="4163.33" y="6835.53" type="priority"/>
    <node id="10221085724" x="4140.21" y="6824.93" type="priority"/>
    <node id="10238158929" x="1629.33" y="7376.03" type="priority"/>
    <node id="10243327512" x="3981.35" y="7559.39" type="priority"/>
    <node id="10243327516" x="3868.14" y="7532.54" type="priority"/>
    <node id="10253596304" x="5556.37" y="7770.82" type="priority"/>
    <node id="10253596308" x="5576.42" y="7762.08" type="priority"/>
    <node id="10257637728" x="5770.62" y="8096.09" type="priority"/>
    <node id="10257637734" x="5772.84" y="8001.66" type="priority"/>
    <node id="10275471708" x="3481.99" y="7163.24" type="priority"/>
    <node id="10275499610" x="3476.70" y="7176.91" type="priority"/>
    <node id="10275499611" x="3559.58" y="7203.21" type="priority"/>
    <node id="10275499614" x="3430.71" y="7311.23" type="right_before_left"/>
    <node id="10278720298" x="6106.53" y="5993.79" type="right_before_left"/>
    <node id="10280336784" x="4914.07" y="7605.26" type="priority"/>
    <node id="10282630899" x="4830.61" y="7992.32" type="dead_end"/>
    <node id="10282649812" x="4819.15" y="8176.50" type="right_before_left"/>
    <node id="10282649822" x="4618.85" y="7945.00" type="priority"/>
    <node id="10282649869" x="5691.71" y="6608.41" type="priority"/>
    <node id="10282649870" x="5806.44" y="6640.45" type="right_before_left"/>
    <node id="10282649874" x="6064.65" y="6714.06" type="right_before_left"/>
    <node id="10282649876" x="5578.95" y="6782.98" type="dead_end"/>
    <node id="10282649877" x="5488.17" y="6771.14" type="priority"/>
    <node id="10300965062" x="2931.80" y="8073.01" type="right_before_left"/>
    <node id="10300965069" x="2742.03" y="7999.24" type="right_before_left"/>
    <node id="10313298133" x="3147.24" y="5289.01" type="priority"/>
    <node id="10585038802" x="3624.58" y="7206.43" type="priority"/>
    <node id="10589445822" x="5790.78" y="7891.30" type="priority"/>
    <node id="10591290741" x="4011.16" y="7823.94" type="priority"/>
    <node id="10722195149" x="4457.60" y="6402.29" type="priority"/>
    <node id="10722195150" x="4461.56" y="6406.69" type="dead_end"/>
    <node id="10778698365" x="4141.43" y="6524.80" type="right_before_left"/>
    <node id="10778698371" x="4039.29" y="6620.43" type="priority"/>
    <node id="10778698372" x="4027.85" y="6634.51" type="priority"/>
    <node id="10778698373" x="4102.36" y="6484.04" type="right_before_left"/>
    <node id="10778698377" x="4088.58" y="6506.06" type="dead_end"/>
    <node id="10780255645" x="5136.08" y="6874.60" type="priority"/>
    <node id="10780255646" x="5166.45" y="6815.02" type="priority"/>
    <node id="10780255647" x="5185.03" y="6763.78" type="priority"/>
    <node id="10780255654" x="4623.60" y="6351.97" type="priority"/>
    <node id="10780255659" x="4786.80" y="6405.21" type="priority"/>
    <node id="10822663484" x="3763.15" y="6461.20" type="priority"/>
    <node id="10822663487" x="3773.27" y="6448.95" type="priority"/>
    <node id="10822663497" x="4011.62" y="6623.61" type="priority"/>
    <node id="10856415276" x="3781.06" y="6113.41" type="priority"/>
    <node id="10856415280" x="3772.56" y="6092.36" type="priority"/>
    <node id="10860797061" x="4826.95" y="6082.91" type="priority"/>
    <node id="10867885623" x="4491.37" y="7710.08" type="right_before_left"/>
    <node id="10867885631" x="4227.38" y="7713.07" type="priority"/>
    <node id="10867885639" x="4368.31" y="7241.76" type="priority"/>
    <node id="10894063516" x="5574.18" y="7793.35" type="priority"/>
    <node id="10965404086" x="4212.89" y="6669.94" type="priority"/>
    <node id="10965404089" x="4146.70" y="6625.90" type="priority"/>
    <node id="10965404090" x="4133.38" y="6515.00" type="priority"/>
    <node id="10965419011" x="4200.17" y="6376.45" type="priority"/>
    <node id="11053569332" x="5745.83" y="7842.70" type="priority"/>
    <node id="11053569350" x="6153.36" y="8126.88" type="priority"/>
    <node id="11129497841" x="3902.87" y="6828.26" type="dead_end"/>
    <node id="11129497843" x="3906.96" y="6838.20" type="dead_end"/>
    <node id="11129497845" x="3948.97" y="6760.06" type="dead_end"/>
    <node id="11129497846" x="3942.37" y="6756.37" type="dead_end"/>
    <node id="11129497848" x="4056.90" y="6567.90" type="dead_end"/>
    <node id="11129497849" x="4041.31" y="6619.25" type="priority"/>
    <node id="11129497874" x="3422.72" y="7282.36" type="right_before_left"/>
    <node id="11129497875" x="3432.53" y="7284.40" type="priority"/>
    <node id="11267539965" x="4693.68" y="5832.58" type="priority"/>
    <node id="11267540973" x="4650.64" y="5864.12" type="priority"/>
    <node id="11299424442" x="3954.75" y="6091.95" type="right_before_left"/>
    <node id="11299424443" x="3945.02" y="6157.96" type="priority" fringe="inner">
        <param key="buffer_stop" value="true"/>
    </node>
    <node id="11299424444" x="4002.67" y="6094.24" type="right_before_left"/>
    <node id="11299424445" x="3979.21" y="6146.32" type="right_before_left"/>
    <node id="11299424446" x="3971.50" y="6139.84" type="right_before_left"/>
    <node id="11299424447" x="3952.15" y="6161.49" type="priority" fringe="inner">
        <param key="buffer_stop" value="true"/>
    </node>
    <node id="11299424448" x="4007.90" y="6099.11" type="right_before_left"/>
    <node id="11299424449" x="3962.04" y="6165.60" type="priority" fringe="inner">
        <param key="buffer_stop" value="true"/>
    </node>
    <node id="11299424450" x="4015.20" y="6105.89" type="right_before_left"/>
    <node id="11299424451" x="3967.42" y="6112.88" type="right_before_left"/>
    <node id="11299424452" x="3973.83" y="6117.98" type="right_before_left"/>
    <node id="11299424453" x="3981.67" y="6109.16" type="right_before_left"/>
    <node id="11299424454" x="3992.89" y="6085.09" type="right_before_left"/>
    <node id="11299424455" x="3975.92" y="6104.53" type="right_before_left"/>
    <node id="11299424456" x="3957.60" y="6124.20" type="right_before_left"/>
    <node id="11299424457" x="3946.21" y="6081.86" type="right_before_left"/>
    <node id="11299424459" x="3971.11" y="6108.61" type="right_before_left"/>
    <node id="11299424460" x="3939.47" y="6145.14" type="right_before_left"/>
    <node id="11299424461" x="3938.58" y="6109.47" type="right_before_left"/>
    <node id="11299424462" x="3915.28" y="6134.17" type="right_before_left"/>
    <node id="11299424466" x="3963.92" y="6129.10" type="right_before_left"/>
    <node id="11299424467" x="3931.72" y="6104.16" type="right_before_left"/>
    <node id="11299466171" x="3998.45" y="6090.32" type="right_before_left"/>
    <node id="11299466172" x="3946.74" y="6148.43" type="right_before_left"/>
    <node id="11299466173" x="3942.99" y="6153.39" type="priority" fringe="inner">
        <param key="buffer_stop" value="true"/>
    </node>
    <node id="11299466174" x="4009.99" y="6076.35" type="priority"/>
    <node id="11328012308" x="3319.47" y="6654.72" type="priority"/>
    <node id="11392564272" x="3833.28" y="6197.23" type="priority"/>
    <node id="11516543406" x="3670.97" y="5767.80" type="right_before_left"/>
    <node id="11516543409" x="3688.48" y="5795.28" type="priority"/>
    <node id="11516543410" x="3680.78" y="5757.04" type="right_before_left"/>
    <node id="11516543411" x="3699.50" y="5788.34" type="priority"/>
    <node id="11516543417" x="3739.10" y="5847.47" type="priority"/>
    <node id="11516543429" x="3821.61" y="6171.05" type="dead_end"/>
    <node id="11528611934" x="3913.46" y="6718.51" type="dead_end"/>
    <node id="11528611936" x="3900.85" y="6701.18" type="dead_end"/>
    <node id="11663315409" x="3878.46" y="6487.46" type="priority"/>
    <node id="11663315410" x="3885.26" y="6472.93" type="priority"/>
    <node id="11688088180" x="3969.67" y="6507.18" type="priority"/>
    <node id="11688088181" x="3998.86" y="6514.93" type="priority"/>
    <node id="11711679505" x="3999.91" y="6808.84" type="priority"/>
    <node id="11711679510" x="4025.95" y="6768.65" type="priority"/>
    <node id="1193658548" x="5576.83" y="7805.54" type="priority"/>
    <node id="12047918713" x="5051.64" y="8080.95" type="priority"/>
    <node id="12047919332" x="5115.38" y="5789.75" type="priority"/>
    <node id="12047919345" x="4940.05" y="5941.74" type="priority"/>
    <node id="12047919352" x="4830.29" y="6078.73" type="priority"/>
    <node id="12047919353" x="4306.20" y="5945.13" type="priority"/>
    <node id="12047919355" x="4345.97" y="5998.36" type="priority"/>
    <node id="12047919356" x="4536.33" y="5926.77" type="priority"/>
    <node id="12047919357" x="4514.44" y="5944.89" type="right_before_left"/>
    <node id="12047919358" x="4468.02" y="5888.39" type="priority"/>
    <node id="12047919360" x="4525.57" y="5958.47" type="priority"/>
    <node id="12047919361" x="4070.74" y="6216.74" type="priority"/>
    <node id="12047919366" x="4093.95" y="6286.04" type="priority"/>
    <node id="12047919368" x="3833.54" y="5598.43" type="priority"/>
    <node id="12047960574" x="3908.01" y="5804.93" type="right_before_left"/>
    <node id="12047960575" x="3700.91" y="5953.59" type="priority"/>
    <node id="12047960584" x="3758.93" y="6035.45" type="priority"/>
    <node id="12047960585" x="3577.95" y="6297.51" type="priority"/>
    <node id="12047960586" x="3591.97" y="6263.96" type="right_before_left"/>
    <node id="12047960587" x="3588.41" y="6235.99" type="priority"/>
    <node id="12047960596" x="3640.86" y="6395.15" type="priority"/>
    <node id="12047960602" x="3581.49" y="6375.57" type="priority"/>
    <node id="12047960606" x="3581.89" y="6440.93" type="right_before_left"/>
    <node id="12047960608" x="3894.71" y="7502.87" type="priority"/>
    <node id="12047960611" x="3991.98" y="7519.60" type="priority"/>
    <node id="12049041839" x="1552.39" y="7591.15" type="priority"/>
    <node id="12049041851" x="1602.01" y="7369.89" type="priority"/>
    <node id="12072153912" x="4652.49" y="6098.53" type="dead_end"/>
    <node id="1211866794" x="3718.70" y="8105.38" type="priority"/>
    <node id="1211866830" x="3810.64" y="7875.88" type="priority"/>
    <node id="12152425104" x="3395.55" y="5211.61" type="priority"/>
    <node id="12356489559" x="3853.69" y="6791.48" type="dead_end"/>
    <node id="12356489561" x="4400.38" y="6437.46" type="priority"/>
    <node id="12356489563" x="4389.43" y="6423.70" type="right_before_left"/>
    <node id="12356489564" x="4412.12" y="6404.62" type="priority"/>
    <node id="12356489565" x="4377.46" y="6432.79" type="priority"/>
    <node id="1236692056" x="3624.35" y="4659.33" type="priority"/>
    <node id="1236692066" x="6249.71" y="7032.63" type="priority"/>
    <node id="1236692804" x="5556.56" y="5256.63" type="priority"/>
    <node id="1236692988" x="5775.02" y="5612.58" type="priority"/>
    <node id="1236693003" x="6229.92" y="6163.01" type="priority"/>
    <node id="1236693073" x="4466.86" y="5234.10" type="right_before_left"/>
    <node id="1236693083" x="3090.21" y="6001.39" type="priority"/>
    <node id="1236693095" x="7461.70" y="7249.42" type="priority"/>
    <node id="1236693598" x="3101.68" y="4673.93" type="priority"/>
    <node id="1236693796" x="3127.28" y="5342.13" type="priority"/>
    <node id="1236693954" x="6526.99" y="6269.35" type="priority"/>
    <node id="1236694170" x="4211.73" y="5799.33" type="right_before_left"/>
    <node id="1236694179" x="6075.14" y="6956.87" type="priority"/>
    <node id="1236694225" x="5892.16" y="6129.60" type="right_before_left"/>
    <node id="1236694259" x="5357.45" y="5878.97" type="priority"/>
    <node id="1236694273" x="5841.13" y="5567.21" type="right_before_left"/>
    <node id="12700376520" x="4615.15" y="5948.24" type="priority"/>
    <node id="1455287129" x="3751.62" y="6512.97" type="dead_end"/>
    <node id="1560712225" x="5659.01" y="7933.04" type="priority"/>
    <node id="1560712245" x="5635.84" y="7966.21" type="right_before_left"/>
    <node id="1560712258" x="5624.04" y="7978.58" type="priority"/>
    <node id="1560712272" x="5378.35" y="8011.84" type="priority"/>
    <node id="1560712284" x="5512.89" y="8051.19" type="priority"/>
    <node id="1560712293" x="5354.04" y="8073.43" type="priority"/>
    <node id="1560712300" x="4935.03" y="8103.61" type="priority"/>
    <node id="1560712304" x="4883.56" y="8120.78" type="priority"/>
    <node id="1560712317" x="5392.95" y="8126.36" type="priority"/>
    <node id="1560712333" x="5823.90" y="8136.67" type="priority"/>
    <node id="1560712340" x="4810.12" y="8161.21" type="priority"/>
    <node id="1560712342" x="5344.93" y="8156.48" type="priority"/>
    <node id="1560712345" x="6282.07" y="8166.88" type="priority"/>
    <node id="1560712358" x="5753.32" y="8182.58" type="priority"/>
    <node id="1560712361" x="4500.58" y="8201.99" type="priority"/>
    <node id="1560712364" x="4529.95" y="8212.19" type="priority"/>
    <node id="1560712424" x="4853.53" y="8278.62" type="priority"/>
    <node id="1560712428" x="4526.67" y="8299.56" type="priority"/>
    <node id="1560712447" x="5569.19" y="8310.19" type="priority"/>
    <node id="1560712452" x="5028.67" y="8350.92" type="priority"/>
    <node id="1560712492" x="5290.47" y="8392.62" type="priority"/>
    <node id="1560712499" x="5444.91" y="8393.44" type="priority"/>
    <node id="1560712550" x="6123.15" y="8425.00" type="priority"/>
    <node id="1560712662" x="4739.11" y="8561.44" type="priority"/>
    <node id="1560712813" x="4610.09" y="8732.19" type="priority"/>
    <node id="1896958491" x="3034.49" y="7112.57" type="right_before_left"/>
    <node id="1896958502" x="2754.24" y="7405.53" type="right_before_left"/>
    <node id="2199562076" x="3923.05" y="6771.68" type="priority"/>
    <node id="2199562091" x="3919.56" y="6823.49" type="priority"/>
    <node id="2295204499" x="4575.81" y="6295.68" type="right_before_left"/>
    <node id="2295204501" x="4589.59" y="6303.69" type="dead_end"/>
    <node id="2295204502" x="4633.43" y="6306.61" type="dead_end"/>
    <node id="2295204503" x="4606.71" y="6311.27" type="dead_end"/>
    <node id="2295204504" x="4637.68" y="6310.10" type="priority"/>
    <node id="2295204505" x="4623.12" y="6319.78" type="dead_end"/>
    <node id="2295204506" x="3866.88" y="6449.63" type="right_before_left"/>
    <node id="2295204508" x="4375.69" y="6457.35" type="right_before_left"/>
    <node id="2295204510" x="3905.75" y="6510.79" type="right_before_left"/>
    <node id="2295204511" x="3922.24" y="6516.68" type="priority"/>
    <node id="2295204512" x="3897.05" y="6532.07" type="priority"/>
    <node id="2295204513" x="4300.03" y="6532.68" type="priority"/>
    <node id="2365938193" x="3943.93" y="6727.74" type="priority"/>
    <node id="250953495" x="4990.19" y="5871.62" type="priority"/>
    <node id="2721513647" x="4289.72" y="6660.68" type="dead_end"/>
    <node id="2721513648" x="4300.17" y="6667.66" type="dead_end"/>
    <node id="2721513649" x="4314.38" y="6672.70" type="priority"/>
    <node id="2721535665" x="4293.02" y="6655.47" type="priority"/>
    <node id="2721535666" x="4288.92" y="6659.57" type="dead_end"/>
    <node id="2721549426" x="4352.65" y="6568.70" type="priority"/>
    <node id="2721549434" x="4299.77" y="6641.30" type="priority"/>
    <node id="2721549436" x="4298.75" y="6643.26" type="priority"/>
    <node id="2721563785" x="4355.60" y="6570.81" type="dead_end"/>
    <node id="2721563789" x="4363.31" y="6579.68" type="dead_end"/>
    <node id="2721618791" x="4448.56" y="6462.06" type="dead_end"/>
    <node id="2721625426" x="4462.17" y="6409.48" type="dead_end"/>
    <node id="2721625428" x="4430.56" y="6425.90" type="priority"/>
    <node id="2721625429" x="4442.35" y="6439.53" type="priority"/>
    <node id="2721672276" x="4362.40" y="6581.01" type="dead_end"/>
    <node id="2721672292" x="4363.50" y="6593.66" type="priority"/>
    <node id="3255902048" x="4623.42" y="6091.04" type="dead_end"/>
    <node id="3255902050" x="4586.39" y="5911.96" type="priority"/>
    <node id="3255902051" x="4724.68" y="6086.45" type="priority"/>
    <node id="3648451153" x="2004.82" y="5051.46" type="priority"/>
    <node id="3787843403" x="4126.39" y="5991.50" type="priority"/>
    <node id="3787843439" x="4156.73" y="6049.83" type="priority"/>
    <node id="389401119" x="482.56" y="6574.94" type="priority"/>
    <node id="4000670463" x="3392.44" y="7421.41" type="priority"/>
    <node id="4000670464" x="3556.95" y="7437.32" type="priority"/>
    <node id="4000670465" x="3559.45" y="7423.50" type="priority"/>
    <node id="4016595588" x="1755.76" y="7433.15" type="right_before_left"/>
    <node id="4016603907" x="2474.88" y="8251.92" type="priority"/>
    <node id="4085448965" x="6300.19" y="13.36" type="dead_end"/>
    <node id="4085449058" x="3843.84" y="8249.21" type="rail_crossing"/>
    <node id="4085449060" x="3713.54" y="8700.88" type="dead_end"/>
    <node id="4185032389" x="5530.71" y="7072.46" type="priority"/>
    <node id="4185032390" x="5531.99" y="7023.65" type="priority"/>
    <node id="4185032391" x="5526.00" y="7072.53" type="priority"/>
    <node id="4185032392" x="5535.52" y="7024.30" type="priority"/>
    <node id="4185033652" x="5538.41" y="7074.50" type="priority"/>
    <node id="4185033653" x="5655.83" y="6999.67" type="priority"/>
    <node id="4185033661" x="5531.07" y="7068.88" type="priority"/>
    <node id="4185033662" x="5568.00" y="7030.29" type="priority"/>
    <node id="4185033663" x="5664.71" y="7028.01" type="priority"/>
    <node id="4185033665" x="5566.59" y="7030.03" type="priority"/>
    <node id="4185033670" x="5579.04" y="7004.13" type="priority"/>
    <node id="4185033676" x="5563.62" y="7077.45" type="priority"/>
    <node id="4185033678" x="5661.28" y="7062.88" type="priority"/>
    <node id="4185033699" x="5543.61" y="6987.41" type="priority"/>
    <node id="4185033700" x="5581.41" y="7032.76" type="priority"/>
    <node id="4185033702" x="5582.12" y="7013.30" type="priority"/>
    <node id="4185034802" x="5433.22" y="7005.45" type="priority"/>
    <node id="4185034803" x="5341.11" y="7024.72" type="priority"/>
    <node id="4185034806" x="5435.68" y="7026.06" type="priority"/>
    <node id="4185034807" x="5492.63" y="6996.21" type="priority"/>
    <node id="4185034808" x="5354.98" y="7058.62" type="priority"/>
    <node id="4185034809" x="5487.95" y="7015.55" type="priority"/>
    <node id="4185034810" x="5358.72" y="7026.93" type="priority"/>
    <node id="4185034811" x="5432.50" y="7010.82" type="priority"/>
    <node id="4185034812" x="5433.49" y="7023.74" type="priority"/>
    <node id="4185034813" x="5316.72" y="7036.45" type="priority"/>
    <node id="4185034815" x="5321.53" y="6983.97" type="priority"/>
    <node id="4185035092" x="5365.57" y="6937.34" type="priority"/>
    <node id="4185035095" x="5353.92" y="6990.31" type="priority"/>
    <node id="4185035096" x="5296.34" y="6921.32" type="priority"/>
    <node id="4185035097" x="5289.05" y="6977.78" type="priority"/>
    <node id="4185035100" x="5303.80" y="6960.60" type="priority"/>
    <node id="4294651878" x="4457.20" y="5765.43" type="priority"/>
    <node id="4294651884" x="4112.66" y="6492.76" type="priority"/>
    <node id="441732707" x="1655.20" y="7376.01" type="priority"/>
    <node id="441732712" x="2468.91" y="7976.77" type="right_before_left"/>
    <node id="441768279" x="2418.98" y="8430.08" type="priority"/>
    <node id="441768287" x="1528.46" y="7964.28" type="right_before_left"/>
    <node id="441768289" x="954.17" y="7828.82" type="right_before_left"/>
    <node id="441768290" x="946.75" y="7804.21" type="right_before_left"/>
    <node id="441768306" x="0.00" y="8209.57" type="priority"/>
    <node id="4423663161" x="5173.07" y="8260.04" type="priority"/>
    <node id="4423663162" x="5129.75" y="8157.43" type="priority"/>
    <node id="4589342452" x="4052.56" y="6112.92" type="priority"/>
    <node id="4589342455" x="4140.68" y="6220.06" type="priority"/>
    <node id="4589342457" x="4095.07" y="6161.40" type="priority"/>
    <node id="4589342458" x="4206.39" y="6115.43" type="priority"/>
    <node id="4589342461" x="3918.37" y="6219.82" type="priority"/>
    <node id="475921961" x="5829.40" y="7749.12" type="priority"/>
    <node id="475921962" x="5739.94" y="7848.00" type="priority"/>
    <node id="4792267341" x="3894.07" y="6923.49" type="right_before_left"/>
    <node id="4792267350" x="3758.29" y="7275.80" type="dead_end"/>
    <node id="4792267352" x="3730.56" y="7284.07" type="priority"/>
    <node id="4792267357" x="3704.47" y="7330.20" type="right_before_left"/>
    <node id="4792267358" x="3654.57" y="7323.83" type="priority"/>
    <node id="4792267361" x="3800.66" y="7384.16" type="priority"/>
    <node id="4792267366" x="3649.56" y="7848.82" type="priority"/>
    <node id="4922059236" x="4000.03" y="6634.94" type="priority"/>
    <node id="4922059237" x="4018.97" y="6649.04" type="priority"/>
    <node id="4922059238" x="3962.58" y="6736.80" type="priority"/>
    <node id="4922059239" x="3852.79" y="6621.79" type="right_before_left"/>
    <node id="4922059248" x="3774.54" y="6594.81" type="priority"/>
    <node id="4922059249" x="3740.09" y="6566.72" type="priority"/>
    <node id="4922059251" x="3778.94" y="6221.32" type="priority"/>
    <node id="4922059259" x="4539.67" y="6129.55" type="right_before_left"/>
    <node id="4922059263" x="4441.21" y="6209.83" type="right_before_left"/>
    <node id="4922059266" x="4472.80" y="6271.70" type="right_before_left"/>
    <node id="4922059275" x="4387.87" y="6232.36" type="priority"/>
    <node id="4922059277" x="4407.15" y="6233.08" type="right_before_left"/>
    <node id="4922059278" x="4403.20" y="6244.51" type="right_before_left"/>
    <node id="4922059281" x="4322.19" y="6295.91" type="right_before_left"/>
    <node id="4922059285" x="4438.04" y="6116.77" type="priority"/>
    <node id="4922059286" x="4328.71" y="6189.00" type="priority"/>
    <node id="4922059287" x="4333.26" y="6286.63" type="priority"/>
    <node id="4922060396" x="4710.24" y="7683.69" type="right_before_left"/>
    <node id="4922060400" x="4933.15" y="8001.59" type="priority"/>
    <node id="4922060406" x="4865.14" y="7724.76" type="right_before_left"/>
    <node id="4922068422" x="4913.45" y="7480.31" type="priority"/>
    <node id="5041571260" x="3967.98" y="7394.10" type="priority"/>
    <node id="5041571263" x="3987.11" y="6930.53" type="priority"/>
    <node id="5041571267" x="4037.39" y="7003.99" type="right_before_left"/>
    <node id="5041571268" x="4078.46" y="7016.11" type="priority"/>
    <node id="5041571287" x="2499.93" y="6578.40" type="priority"/>
    <node id="5041571291" x="2994.20" y="6601.74" type="right_before_left"/>
    <node id="5041571295" x="2731.91" y="7130.48" type="right_before_left"/>
    <node id="5100811509" x="5522.63" y="7935.22" type="priority"/>
    <node id="5100811520" x="5508.96" y="7903.92" type="priority"/>
    <node id="5100813328" x="5572.90" y="8010.86" type="priority"/>
    <node id="525480498" x="2878.44" y="7699.00" type="right_before_left"/>
    <node id="5309001049" x="1671.84" y="7385.48" type="priority"/>
    <node id="5309001050" x="1650.76" y="7380.90" type="priority"/>
    <node id="5309001052" x="1499.45" y="7347.20" type="right_before_left"/>
    <node id="5309001053" x="918.41" y="6037.45" type="priority"/>
    <node id="5411184951" x="5880.63" y="7689.31" type="priority"/>
    <node id="5411211627" x="6470.06" y="7026.80" type="priority"/>
    <node id="5411234140" x="4438.16" y="6407.05" type="priority"/>
    <node id="5411234141" x="4514.07" y="6345.53" type="priority"/>
    <node id="5411234144" x="4618.38" y="6261.48" type="priority"/>
    <node id="5411234147" x="3694.12" y="5708.52" type="priority"/>
    <node id="587736672" x="493.56" y="6184.22" type="priority"/>
    <node id="622070859" x="3709.76" y="8699.25" type="dead_end"/>
    <node id="623022038" x="3386.40" y="7812.07" type="priority"/>
    <node id="623022133" x="2560.18" y="8463.42" type="priority"/>
    <node id="623022149" x="2671.27" y="8347.34" type="right_before_left"/>
    <node id="623022259" x="3081.81" y="8053.58" type="right_before_left"/>
    <node id="623022338" x="3415.64" y="8098.25" type="priority"/>
    <node id="623022372" x="3249.55" y="8312.95" type="right_before_left"/>
    <node id="623022392" x="3375.46" y="8281.96" type="priority"/>
    <node id="623022512" x="3114.43" y="8550.12" type="priority"/>
    <node id="623022856" x="3915.81" y="8048.24" type="priority"/>
    <node id="623022876" x="3710.08" y="8261.50" type="priority"/>
    <node id="623022902" x="3933.46" y="8351.62" type="priority"/>
    <node id="623022934" x="4058.12" y="8176.31" type="priority"/>
    <node id="623023071" x="4023.95" y="8944.89" type="priority"/>
    <node id="631758774" x="4961.96" y="4989.22" type="priority"/>
    <node id="631758806" x="4775.66" y="5686.99" type="priority"/>
    <node id="631758819" x="5101.55" y="5722.31" type="priority"/>
    <node id="631758826" x="5052.66" y="5825.95" type="priority"/>
    <node id="631758978" x="5392.60" y="5023.86" type="priority"/>
    <node id="631758997" x="5443.75" y="4969.75" type="priority"/>
    <node id="631759006" x="5231.76" y="5164.62" type="priority"/>
    <node id="631759031" x="5667.23" y="5098.71" type="priority"/>
    <node id="631759167" x="5480.93" y="5445.85" type="priority"/>
    <node id="631759168" x="5545.26" y="5492.36" type="priority"/>
    <node id="632237184" x="3574.68" y="5352.03" type="priority"/>
    <node id="632237194" x="3717.97" y="5789.46" type="priority"/>
    <node id="632237195" x="3784.26" y="6119.72" type="priority"/>
    <node id="632237198" x="3824.00" y="6181.21" type="priority"/>
    <node id="632237200" x="3961.06" y="6338.55" type="priority"/>
    <node id="632237224" x="4062.02" y="6449.69" type="right_before_left"/>
    <node id="632237232" x="4161.85" y="6549.62" type="priority"/>
    <node id="632237234" x="4368.17" y="6463.84" type="priority"/>
    <node id="632237244" x="4318.52" y="6512.54" type="priority"/>
    <node id="632237248" x="4232.81" y="6625.28" type="traffic_light" tl="GS_632237248"/>
    <node id="632237263" x="4389.79" y="6648.49" type="priority"/>
    <node id="632237270" x="4288.66" y="6659.92" type="priority"/>
    <node id="632237295" x="4768.07" y="6141.23" type="priority"/>
    <node id="632237323" x="4187.58" y="6740.75" type="priority"/>
    <node id="632237327" x="4166.70" y="6803.73" type="priority"/>
    <node id="632237329" x="4171.09" y="6838.47" type="priority"/>
    <node id="632237333" x="4170.29" y="6875.08" type="priority"/>
    <node id="632237337" x="4153.49" y="6914.99" type="priority"/>
    <node id="632237339" x="4156.46" y="6925.52" type="priority"/>
    <node id="632237341" x="4144.53" y="6964.36" type="priority"/>
    <node id="632237347" x="4315.02" y="6680.65" type="priority"/>
    <node id="632237349" x="4256.18" y="6769.10" type="priority"/>
    <node id="632237351" x="4026.26" y="7397.81" type="priority"/>
    <node id="632237359" x="3983.85" y="7550.12" type="priority"/>
    <node id="632237378" x="4499.38" y="6739.41" type="priority"/>
    <node id="632237380" x="4541.99" y="6862.65" type="priority"/>