<edges xmlns:xsi="http://www.w3.org/2001/XMLSchema-instance" version="1.16" xsi:noNamespaceSchemaLocation="http://sumo.dlr.de/xsd/edges_file.xsd">
    <location netOffset="-411804.16,-5411541.15" convBoundary="0.00,0.00,7461.70,8944.89" origBoundary="1.796001,48.851433,1.898033,48.931577" projParameter="+proj=utm +zone=31 +ellps=WGS84 +datum=WGS84 +units=m +no_defs" />

    <edge id="-1022688361" from="632662927" to="9432058847" priority="3" type="highway.residential" numLanes="1" speed="13.89" disallow="tram rail_urban rail rail_electric rail_fast ship" />
    <edge id="-1052658652" from="9674093423" to="9674093422" priority="4" type="highway.unclassified" numLanes="1" speed="13.89" disallow="tram rail_urban rail rail_electric rail_fast ship" />
    <edge id="-1074327244" from="634514468" to="634514472" priority="3" type="highway.residential" numLanes="1" speed="8.33" shape="4971.33,6985.56 4957.89,6980.14 4931.62,6977.24" disallow="tram rail_urban rail rail_electric rail_fast ship" />
    <edge id="-107637138" from="1236694179" to="1236692066" priority="3" type="highway.residential" numLanes="1" speed="13.89" shape="6075.14,6956.87 6140.80,6986.72 6143.62,6987.79 6208.22,7004.67 6235.12,7016.03 6249.71,7032.63" disallow="tram rail_urban rail rail_electric rail_fast ship">
        <param key="ref" value="CR 19" />
    </edge>
    <edge id="-1113710346" from="632237244" to="632237234" priority="12" type="highway.primary" numLanes="2" speed="8.33" shape="4318.52,6512.54 4337.67,6491.69 4357.58,6471.97 4368.17,6463.84" disallow="tram rail_urban rail rail_electric rail_fast ship">
        <param key="ref" value="D 191" />
    </edge>
    <edge id="-1113710347" from="5411234140" to="634514053" priority="12" type="highway.primary" numLanes="2" speed="13.89" disallow="tram rail_urban rail rail_electric rail_fast ship">
        <param key="ref" value="D 191" />
    </edge>
    <edge id="-1113710349#0" from="634514069" to="634514057" priority="3" type="highway.residential" numLanes="1" speed="13.89" shape="4616.74,6360.33 4600.01,6382.76 4591.66,6395.88 4576.36,6437.30 4564.61,6475.08 4563.40,6478.98 4563.23,6483.33 4563.05,6487.66" disallow="tram rail_urban rail rail_electric rail_fast ship" />
    <edge id="-1113710349#1" from="10780255654" to="634514069" priority="3" type="highway.residential" numLanes="1" speed="13.89" disallow="tram rail_urban rail rail_electric rail_fast ship" />
    <edge id="-1113710349#2" from="634514033" to="10780255654" priority="3" type="highway.residential" numLanes="1" speed="13.89" shape="4628.46,6343.19 4626.12,6348.89 4623.60,6351.97" disallow="tram rail_urban rail rail_electric rail_fast ship" />
    <edge id="-1113710350" from="634514072" to="632237263" priority="3" type="highway.residential" numLanes="1" speed="13.89" shape="4499.04,6536.56 4492.94,6542.23 4419.74,6610.29 4394.70,6633.57 4389.62,6641.97 4389.70,6645.23 4389.79,6648.49" disallow="tram rail_urban rail rail_electric rail_fast ship" />
    <edge id="-1121460555" from="10257637734" to="10257637728" priority="4" type="highway.unclassified" numLanes="1" speed="13.89" shape="5772.84,8001.66 5777.53,8006.91 5821.22,8048.78 5818.87,8055.42 5804.41,8070.86 5778.90,8090.20 5770.62,8096.09" disallow="tram rail_urban rail rail_electric rail_fast ship" />
    <edge id="-1135540565" from="10585038802" to="632662565" priority="3" type="highway.residential" numLanes="1" speed="8.33" disallow="tram rail_urban rail rail_electric rail_fast ship" />
    <edge id="-1152766349" from="1560712225" to="632237508" priority="11" type="highway.secondary" numLanes="1" speed="13.89" disallow="tram rail_urban rail rail_electric rail_fast ship">
        <param key="ref" value="D 45" />
    </edge>
    <edge id="-1152766350" from="632237508" to="632237494" priority="11" type="highway.secondary" numLanes="1" speed="13.89" shape="5638.74,7945.33 5620.19,7949.39 5603.85,7949.31 5589.70,7944.25 5571.01,7932.17" disallow="tram rail_urban rail rail_electric rail_fast ship">
        <param key="ref" value="D 45" />
    </edge>
    <edge id="-1152766351#0" from="634514648" to="10253596308" priority="3" type="highway.residential" numLanes="1" speed="13.89" shape="5666.84,7638.82 5622.32,7679.67 5600.76,7701.61 5588.15,7718.89 5580.84,7734.14 5577.44,7750.41 5576.42,7762.08" disallow="tram rail_urban rail rail_electric rail_fast ship" />
    <edge id="-1152766351#1" from="9854210392" to="634514648" priority="3" type="highway.residential" numLanes="1" speed="13.89" shape="5722.07,7382.61 5724.17,7415.23 5725.98,7443.37 5726.48,7468.09 5725.22,7482.46 5720.43,7507.67 5712.86,7540.46 5708.70,7552.07 5694.32,7590.02 5685.24,7610.70 5676.17,7625.83 5666.84,7638.82" disallow="tram rail_urban rail rail_electric rail_fast ship" />
    <edge id="-1152766351#2" from="634514606" to="9854210392" priority="3" type="highway.residential" numLanes="1" speed="13.89" shape="5733.27,7115.39 5732.88,7122.57 5732.29,7133.30 5728.25,7159.16 5725.86,7192.83 5724.47,7212.37 5722.32,7235.32 5721.94,7261.67 5720.93,7344.89 5721.31,7370.74 5722.07,7382.61" disallow="tram rail_urban rail rail_electric rail_fast ship" />
    <edge id="-1152766351#3" from="634514597" to="634514606" priority="3" type="highway.residential" numLanes="1" speed="13.89" shape="5713.02,7018.54 5715.18,7025.30 5723.21,7050.46 5729.01,7071.65 5732.54,7095.99 5733.56,7107.27 5733.27,7115.39" disallow="tram rail_urban rail rail_electric rail_fast ship" />
    <edge id="-1152766351#4" from="634514571" to="634514597" priority="3" type="highway.residential" numLanes="1" speed="13.89" shape="5704.59,6922.27 5706.19,6967.75 5708.59,6996.12 5711.72,7011.97 5713.02,7018.54" disallow="tram rail_urban rail rail_electric rail_fast ship" />
    <edge id="-1159223036" from="10780255646" to="10780255645" priority="4" type="highway.unclassified" numLanes="1" speed="13.89" disallow="tram rail_urban rail rail_electric rail_fast ship" />
    <edge id="-1159223039" from="10780255659" to="10780255654" priority="3" type="highway.residential" numLanes="1" speed="13.89" shape="4786.80,6405.21 4745.66,6368.18 4722.66,6374.43 4669.54,6366.39 4648.09,6369.77 4623.60,6351.97" disallow="tram rail_urban rail rail_electric rail_fast ship" />
    <edge id="-1167403594#0" from="12047960584" to="10856415280" priority="11" type="highway.secondary" numLanes="1" speed="13.89" shape="3758.93,6035.45 3762.77,6057.49 3772.56,6092.36" disallow="tram rail_urban rail rail_electric rail_fast ship">
        <param key="ref" value="D 45" />
    </edge>
    <edge id="-1167403595" from="10856415280" to="10856415276" priority="11" type="highway.secondary" numLanes="1" speed="13.89" shape="3772.56,6092.36 3775.26,6101.97 3781.06,6113.41" disallow="tram rail_urban rail rail_electric rail_fast ship">
        <param key="ref" value="D 45" />
    </edge>
    <edge id="-1172537414" from="632237440" to="10253596304" priority="11" type="highway.secondary" numLanes="1" speed="13.89" disallow="tram rail_urban rail rail_electric rail_fast ship">
        <param key="ref" value="D 45" />
    </edge>
    <edge id="-1190451330" from="10589445822" to="11053569332" priority="4" type="highway.unclassified" numLanes="1" speed="13.89" disallow="tram rail_urban rail rail_electric rail_fast ship" />
    <edge id="-1228486786#0" from="7551893336" to="11392564272" priority="11" type="highway.secondary" numLanes="1" speed="8.33" disallow="tram rail_urban rail rail_electric rail_fast ship">
        <param key="ref" value="D 45" />
    </edge>
    <edge id="-1228486786#1" from="632237198" to="7551893336" priority="11" type="highway.secondary" numLanes="1" speed="8.33" disallow="tram rail_urban rail rail_electric rail_fast ship">
        <param key="ref" value="D 45" />
    </edge>
    <edge id="-1228486786#2" from="7551897693" to="632237198" priority="11" type="highway.secondary" numLanes="1" speed="8.33" disallow="tram rail_urban rail rail_electric rail_fast ship">
        <param key="ref" value="D 45" />
    </edge>
    <edge id="-1228486786#3" from="8391888334" to="7551897693" priority="11" type="highway.secondary" numLanes="1" speed="8.33" disallow="tram rail_urban rail rail_electric rail_fast ship">
        <param key="ref" value="D 45" />
    </edge>
    <edge id="-1228486786#4" from="632237195" to="8391888334" priority="11" type="highway.secondary" numLanes="1" speed="8.33" shape="3784.26,6119.72 3798.52,6144.82 3812.98,6165.52" disallow="tram rail_urban rail rail_electric rail_fast ship">
        <param key="ref" value="D 45" />
    </edge>
    <edge id="-1228486787#0" from="632663338" to="632237224" priority="11" type="highway.secondary" numLanes="1" speed="8.33" disallow="tram rail_urban rail rail_electric rail_fast ship">
        <param key="ref" value="D 45" />
    </edge>
    <edge id="-1228486787#2" from="632663316" to="632663338" priority="11" type="highway.secondary" numLanes="1" speed="8.33" shape="4026.10,6410.27 4028.59,6413.38 4037.89,6425.01 4054.42,6442.26 4056.43,6444.26" disallow="tram rail_urban rail rail_electric rail_fast ship">
        <param key="ref" value="D 45" />
    </edge>
    <edge id="-1228486787#4" from="632663129" to="632663316" priority="11" type="highway.secondary" numLanes="1" speed="8.33" shape="4010.36,6386.42 4020.31,6403.03 4023.21,6406.66 4026.10,6410.27" disallow="tram rail_urban rail rail_electric rail_fast ship">
        <param key="ref" value="D 45" />
    </edge>
    <edge id="-1228486787#6" from="8828994549" to="632663129" priority="11" type="highway.secondary" numLanes="1" speed="8.33" shape="3995.05,6368.58 4000.00,6374.23 4010.36,6386.42" disallow="tram rail_urban rail rail_electric rail_fast ship">
        <param key="ref" value="D 45" />
    </edge>
    <edge id="-1274273408" from="6720396595" to="6720396594" priority="3" type="highway.residential" numLanes="1" speed="13.89" disallow="tram rail_urban rail rail_electric rail_fast ship" />
    <edge id="-142610560#0" from="1560712300" to="1560712304" priority="3" type="highway.residential" numLanes="1" speed="13.89" shape="4935.03,8103.61 4910.85,8109.41 4883.56,8120.78" disallow="tram rail_urban rail rail_electric rail_fast ship" />
    <edge id="-142610560#1" from="1560712452" to="1560712300" priority="3" type="highway.residential" numLanes="1" speed="13.89" shape="5028.67,8350.92 5026.21,8347.01 4999.37,8304.11 4971.34,8254.88 4972.95,8243.95 4976.86,8233.63 4976.82,8219.63 4962.82,8184.66 4935.03,8103.61" disallow="tram rail_urban rail rail_electric rail_fast ship" />
    <edge id="-142610600#0" from="10257637728" to="1560712258" priority="3" type="highway.residential" numLanes="1" speed="13.89" shape="5770.62,8096.09 5746.81,8078.23 5672.89,8020.34 5630.72,7984.20 5624.04,7978.58" disallow="tram rail_urban rail rail_electric rail_fast ship" />
    <edge id="-142610600#1" from="1560712333" to="10257637728" priority="3" type="highway.residential" numLanes="1" speed="13.89" shape="5823.90,8136.67 5788.06,8109.16 5770.62,8096.09" disallow="tram rail_urban rail rail_electric rail_fast ship" />
    <edge id="-142610620" from="1560712342" to="1560712492" priority="3" type="highway.residential" numLanes="1" speed="13.89" shape="5344.93,8156.48 5348.08,8163.12 5341.62,8203.88 5338.56,8223.54 5332.60,8244.16 5323.41,8274.47 5300.53,8345.84 5290.47,8392.62" disallow="tram rail_urban rail rail_electric rail_fast ship" />
    <edge id="-142610635#0" from="1560712428" to="1560712662" priority="3" type="highway.residential" numLanes="1" speed="13.89" shape="4526.67,8299.56 4531.32,8309.06 4565.41,8378.63 4578.85,8407.35 4587.06,8422.39 4596.85,8434.46 4625.34,8460.44 4675.01,8506.47 4735.54,8558.86 4739.11,8561.44" disallow="tram rail_urban rail rail_electric rail_fast ship" />
    <edge id="-142610635#1" from="1560712364" to="1560712428" priority="3" type="highway.residential" numLanes="1" speed="13.89" shape="4529.95,8212.19 4528.33,8247.14 4526.67,8299.56" disallow="tram rail_urban rail rail_electric rail_fast ship" />
    <edge id="-142610650#0" from="1560712662" to="1560712813" priority="10" type="highway.tertiary" numLanes="1" speed="13.89" shape="4739.11,8561.44 4730.43,8566.93 4686.47,8595.72 4668.25,8612.15 4648.12,8646.79 4644.92,8653.89 4641.85,8660.70 4627.17,8693.36 4617.52,8715.30 4614.76,8721.57 4610.09,8732.19" disallow="tram rail_urban rail rail_electric rail_fast ship" />
    <edge id="-142610650#1" from="1560712452" to="1560712662" priority="10" type="highway.tertiary" numLanes="1" speed="13.89" shape="5028.67,8350.92 5024.47,8353.56 5015.20,8359.61 4930.27,8414.98 4851.63,8464.86 4831.33,8479.38 4801.36,8508.54 4750.76,8551.40 4743.02,8558.07 4739.11,8561.44" disallow="tram rail_urban rail rail_electric rail_fast ship" />
    <edge id="-142610650#2" from="4423663161" to="1560712452" priority="10" type="highway.tertiary" numLanes="1" speed="13.89" shape="5173.07,8260.04 5146.21,8276.51 5118.79,8293.27 5034.68,8347.07 5028.67,8350.92" disallow="tram rail_urban rail rail_electric rail_fast ship" />
    <edge id="-142610650#3" from="1560712342" to="4423663161" priority="10" type="highway.tertiary" numLanes="1" speed="13.89" shape="5344.93,8156.48 5341.75,8158.44 5329.99,8165.67 5214.99,8234.45 5186.12,8252.08 5173.07,8260.04" disallow="tram rail_urban rail rail_electric rail_fast ship" />
    <edge id="-142610650#4" from="1560712317" to="1560712342" priority="10" type="highway.tertiary" numLanes="1" speed="13.89" shape="5392.95,8126.36 5374.36,8137.62 5351.84,8152.22 5344.93,8156.48" disallow="tram rail_urban rail rail_electric rail_fast ship" />
    <edge id="-142610650#5" from="1560712284" to="1560712317" priority="10" type="highway.tertiary" numLanes="1" speed="13.89" shape="5512.89,8051.19 5443.81,8095.56 5392.95,8126.36" disallow="tram rail_urban rail rail_electric rail_fast ship" />
    <edge id="-142610650#6" from="5100813328" to="1560712284" priority="10" type="highway.tertiary" numLanes="1" speed="13.89" shape="5572.90,8010.86 5564.62,8015.67 5512.89,8051.19" disallow="tram rail_urban rail rail_electric rail_fast ship" />
    <edge id="-142610650#7" from="632237511" to="5100813328" priority="10" type="highway.tertiary" numLanes="1" speed="13.89" shape="5590.93,8000.19 5586.57,8002.50 5572.90,8010.86" disallow="tram rail_urban rail rail_electric rail_fast ship" />
    <edge id="-142610662" from="1560712293" to="1560712317" priority="3" type="highway.residential" numLanes="1" speed="13.89" shape="5354.04,8073.43 5391.25,8124.05 5392.95,8126.36" disallow="tram rail_urban rail rail_electric rail_fast ship" />
    <edge id="-142610669" from="1560712333" to="1560712358" priority="3" type="highway.residential" numLanes="1" speed="13.89" disallow="tram rail_urban rail rail_electric rail_fast ship" />
    <edge id="-146496966#0" from="9978400283" to="11711679510" priority="3" type="highway.residential" numLanes="1" speed="13.89" shape="3974.22,6742.65 3988.68,6749.91 3989.90,6750.53 4006.18,6758.71 4025.95,6768.65" disallow="tram rail_urban rail rail_electric rail_fast ship" />
    <edge id="-146496966#1" from="4922059238" to="9978400283" priority="3" type="highway.residential" numLanes="1" speed="13.89" disallow="tram rail_urban rail rail_electric rail_fast ship" />
    <edge id="-146496966#2" from="2365938193" to="4922059238" priority="3" type="highway.residential" numLanes="1" speed="13.89" disallow="tram rail_urban rail rail_electric rail_fast ship" />
    <edge id="-146496966#3" from="6721461699" to="2365938193" priority="3" type="highway.residential" numLanes="1" speed="13.89" disallow="tram rail_urban rail rail_electric rail_fast ship" />
    <edge id="-146496968#0" from="7551930068" to="6721461699" priority="3" type="highway.residential" numLanes="1" speed="13.89" shape="3898.51,6704.64 3907.22,6708.97 3916.14,6713.45" disallow="tram rail_urban rail rail_electric rail_fast ship" />
    <edge id="-146496969" from="632663200" to="7551930068" priority="3" type="highway.residential" numLanes="1" speed="13.89" shape="3839.53,6673.38 3847.08,6677.77 3870.37,6690.09 3882.34,6696.29 3889.59,6699.99 3898.51,6704.64" disallow="tram rail_urban rail rail_electric rail_fast ship" />
    <edge id="-146496970#0" from="4294651884" to="10965404090" priority="11" type="highway.secondary" numLanes="1" speed="8.33" shape="4112.66,6492.76 4120.61,6499.48 4133.38,6515.00" disallow="tram rail_urban rail rail_electric rail_fast ship">
        <param key="ref" value="D 45" />
    </edge>
    <edge id="-146496971#0" from="10778698373" to="4294651884" priority="11" type="highway.secondary" numLanes="1" speed="8.33" shape="4102.36,6484.04 4105.87,6487.01 4108.02,6488.83 4112.66,6492.76" disallow="tram rail_urban rail rail_electric rail_fast ship">
        <param key="ref" value="D 45" />
    </edge>
    <edge id="-146496971#1" from="632237224" to="10778698373" priority="11" type="highway.secondary" numLanes="1" speed="8.33" shape="4062.02,6449.69 4076.45,6462.03 4079.57,6464.76 4102.36,6484.04" disallow="tram rail_urban rail rail_electric rail_fast ship">
        <param key="ref" value="D 45" />
    </edge>
    <edge id="-179344522" from="632662482" to="632662459" priority="3" type="highway.residential" numLanes="1" speed="8.33" shape="3614.16,6921.04 3610.58,6919.87 3593.28,6914.21 3520.65,6885.74" disallow="tram rail_urban rail rail_electric rail_fast ship" />
    <edge id="-229600557" from="632663559" to="632663553" priority="3" type="highway.residential" numLanes="1" speed="22.22" shape="3914.85,7904.21 3896.44,7906.06 3889.46,7905.00 3851.57,7886.74 3833.77,7879.26" disallow="tram rail_urban rail rail_electric rail_fast ship" />
    <edge id="-255382794" from="634514188" to="634514136" priority="3" type="highway.residential" numLanes="1" speed="8.33" shape="5310.11,6112.22 5302.49,6106.43 5288.42,6105.76 5264.49,6109.54 5192.27,6125.27" disallow="tram rail_urban rail rail_electric rail_fast ship" />
    <edge id="-285871859" from="634514656" to="634514648" priority="3" type="highway.residential" numLanes="1" speed="8.33" shape="5799.44,7783.25 5742.06,7740.58 5725.03,7716.62 5666.84,7638.82" disallow="tram rail_urban rail rail_electric rail_fast ship" />
    <edge id="-375414428#0" from="3787843439" to="3787843403" priority="3" type="highway.residential" numLanes="1" speed="13.89" shape="4156.73,6049.83 4158.01,6043.65 4156.69,6038.66 4154.30,6033.69 4126.39,5991.50" disallow="tram rail_urban rail rail_electric rail_fast ship" />
    <edge id="-375414428#1" from="4589342452" to="3787843439" priority="3" type="highway.residential" numLanes="1" speed="13.89" shape="4052.56,6112.92 4061.37,6106.68 4071.81,6099.30 4089.24,6087.78 4108.95,6076.95 4142.07,6064.78 4151.71,6058.46 4156.73,6049.83" disallow="tram rail_urban rail rail_electric rail_fast ship" />
    <edge id="-375414428#2" from="4589342461" to="4589342452" priority="3" type="highway.residential" numLanes="1" speed="13.89" shape="3918.37,6219.82 3932.70,6210.06 3977.28,6180.79 3993.46,6167.84 4042.15,6121.93 4052.56,6112.92" disallow="tram rail_urban rail rail_electric rail_fast ship" />
    <edge id="-37676946" from="441732707" to="632240596" priority="4" type="highway.unclassified" numLanes="1" speed="13.89" shape="1655.20,7376.01 1875.49,6805.80 1883.54,6778.05 2036.63,6062.75 2040.74,6048.07" disallow="tram rail_urban rail rail_electric rail_fast ship" />
    <edge id="-397256016" from="4000670464" to="4000670463" priority="3" type="highway.residential" numLanes="1" speed="13.89" shape="3556.95,7437.32 3544.74,7436.39 3465.29,7426.13 3429.91,7425.55 3396.84,7421.90 3394.76,7421.66 3392.44,7421.41" disallow="tram rail_urban rail rail_electric rail_fast ship" />
    <edge id="-463687741#0" from="11299466174" to="632662699" priority="3" type="highway.residential" numLanes="1" speed="13.89" shape="4009.99,6076.35 4000.57,6068.00 3988.62,6054.62 3986.11,6051.81" disallow="tram rail_urban rail rail_electric rail_fast ship" />
    <edge id="-463687741#1" from="4589342452" to="11299466174" priority="3" type="highway.residential" numLanes="1" speed="13.89" shape="4052.56,6112.92 4050.13,6110.52 4030.49,6094.49 4009.99,6076.35" disallow="tram rail_urban rail rail_electric rail_fast ship" />
    <edge id="-49129822#0" from="623022338" to="623022392" priority="4" type="highway.unclassified" numLanes="1" speed="22.22" shape="3415.64,8098.25 3417.17,8137.60 3411.13,8169.18 3395.99,8211.62 3375.46,8281.96" disallow="tram rail_urban rail rail_electric rail_fast ship" />
    <edge id="-49129822#1" from="623022038" to="623022338" priority="4" type="highway.unclassified" numLanes="1" speed="22.22" shape="3386.40,7812.07 3393.47,7890.56 3402.17,7964.09 3409.96,8039.36 3415.64,8098.25" disallow="tram rail_urban rail rail_electric rail_fast ship" />
    <edge id="-49129857#0" from="6719782313" to="623022856" priority="3" type="highway.residential" numLanes="1" speed="22.22" shape="3890.44,8154.86 3888.66,8145.97 3896.87,8105.09 3915.81,8048.24" disallow="tram rail_urban rail rail_electric rail_fast ship" />
    <edge id="-49129857#1" from="623022902" to="6719782313" priority="3" type="highway.residential" numLanes="1" speed="22.22" shape="3933.46,8351.62 3929.42,8324.67 3923.13,8300.87 3917.52,8267.42 3913.25,8232.62 3909.21,8206.13 3899.78,8175.82 3894.17,8160.77 3890.44,8154.86" disallow="tram rail_urban rail rail_electric rail_fast ship" />
    <edge id="-49129857#2" from="623023071" to="623022902" priority="3" type="highway.residential" numLanes="1" speed="22.22" shape="4023.95,8944.89 4019.83,8933.59 4014.30,8914.94 4008.37,8897.52 4001.69,8880.60 3979.64,8811.99 3970.23,8781.01 3963.44,8757.46 3953.93,8714.73 3947.58,8690.92 3944.26,8670.19 3940.82,8647.04 3935.15,8595.14 3929.69,8543.32 3929.12,8537.97 3927.64,8497.56 3925.39,8456.24 3925.40,8422.24 3930.96,8386.08 3933.46,8351.62" disallow="tram rail_urban rail rail_electric rail_fast ship" />
    <edge id="-49129860" from="623022934" to="623022902" priority="4" type="highway.unclassified" numLanes="1" speed="13.89" shape="4058.12,8176.31 4056.25,8181.63 4049.43,8204.28 4043.88,8213.31 4040.11,8230.88 4028.12,8250.75 4021.68,8258.85 3981.61,8315.57 3969.02,8331.94 3933.46,8351.62" disallow="tram rail_urban rail rail_electric rail_fast ship" />
    <edge id="-49706229" from="631758806" to="631758774" priority="4" type="highway.unclassified" numLanes="1" speed="8.33" shape="4775.66,5686.99 4782.71,5663.30 4794.53,5633.57 4804.92,5616.58 4818.14,5598.40 4867.69,5541.30 4881.84,5523.13 4891.99,5508.74 4901.20,5490.80 4905.44,5477.12 4912.76,5423.55 4935.18,5286.22 4945.63,5177.15 4951.67,5136.83 4965.29,5073.90 4967.62,5054.73 4967.94,5031.71 4966.49,5013.12 4961.96,4989.22" disallow="tram rail_urban rail rail_electric rail_fast ship">
        <param key="ref" value="C 4" />
    </edge>
    <edge id="-49706230#0" from="631758978" to="631758997" priority="3" type="highway.residential" numLanes="1" speed="13.89" shape="5392.60,5023.86 5405.62,5009.70 5443.75,4969.75" disallow="tram rail_urban rail rail_electric rail_fast ship" />
    <edge id="-49706230#1" from="631759167" to="631758978" priority="3" type="highway.residential" numLanes="1" speed="13.89" shape="5480.93,5445.85 5382.09,5373.27 5374.39,5361.79 5369.86,5347.75 5369.61,5329.23 5373.15,5301.14 5382.59,5256.55 5385.66,5178.68 5385.26,5079.60 5384.18,5049.87 5386.11,5036.47 5392.60,5023.86" disallow="tram rail_urban rail rail_electric rail_fast ship" />
    <edge id="-49706232" from="631759006" to="250953495" priority="12" type="highway.primary" numLanes="2" speed="25.00" shape="5231.76,5164.62 5151.89,5413.98 5105.22,5559.27 5038.59,5763.55 5020.77,5809.46 4990.19,5871.62" disallow="tram rail_urban rail rail_electric rail_fast ship">
        <param key="ref" value="D 191" />
    </edge>
    <edge id="-49747164#0" from="2295204513" to="632237244" priority="12" type="highway.primary" numLanes="2" speed="13.89" disallow="tram rail_urban rail rail_electric rail_fast ship">
        <param key="ref" value="D 191" />
    </edge>
    <edge id="-49747164#10" from="9405523013" to="632237323" priority="12" type="highway.primary" numLanes="2" speed="13.89" disallow="tram rail_urban rail rail_electric rail_fast ship">
        <param key="ref" value="D 191" />
    </edge>
    <edge id="-49747164#13" from="9405523007" to="9405523013" priority="12" type="highway.primary" numLanes="2" speed="13.89" shape="4178.06,6766.52 4180.55,6759.26 4181.67,6756.61 4185.19,6747.66" disallow="tram rail_urban rail rail_electric rail_fast ship">
        <param key="ref" value="D 191" />
    </edge>
    <edge id="-49747164#14" from="8828994529" to="9405523007" priority="12" type="highway.primary" numLanes="2" speed="13.89" disallow="tram rail_urban rail rail_electric rail_fast ship">
        <param key="ref" value="D 191" />
    </edge>
    <edge id="-49747164#3" from="632237248" to="2295204513" priority="12" type="highway.primary" numLanes="2" speed="13.89" shape="4232.81,6625.28 4244.59,6609.27 4246.81,6606.06 4281.90,6555.12 4300.03,6532.68" disallow="tram rail_urban rail rail_electric rail_fast ship">
        <param key="ref" value="D 191" />
    </edge>
    <edge id="-49747164#6" from="10965404086" to="632237248" priority="12" type="highway.primary" numLanes="2" speed="13.89" shape="4212.89,6669.94 4218.74,6654.13 4219.62,6651.26 4224.50,6638.59 4232.81,6625.28" disallow="tram rail_urban rail rail_electric rail_fast ship">
        <param key="ref" value="D 191" />
    </edge>
    <edge id="-49747164#9" from="632237323" to="10965404086" priority="12" type="highway.primary" numLanes="2" speed="13.89" shape="4187.58,6740.75 4195.83,6717.43 4196.78,6714.93 4208.79,6681.02 4212.89,6669.94" disallow="tram rail_urban rail rail_electric rail_fast ship">
        <param key="ref" value="D 191" />
    </edge>
    <edge id="-49747166#2" from="632237349" to="632237323" priority="11" type="highway.secondary" numLanes="1" speed="13.89" shape="4256.18,6769.10 4252.56,6769.23 4248.73,6768.63 4210.01,6750.63 4205.42,6748.50 4187.58,6740.75" disallow="tram rail_urban rail rail_electric rail_fast ship">
        <param key="ref" value="D 45" />
    </edge>
    <edge id="-49747166#3" from="634514238" to="632237349" priority="11" type="highway.secondary" numLanes="1" speed="13.89" shape="4306.91,6687.48 4298.48,6698.14 4274.49,6749.90 4267.01,6760.98 4263.56,6765.20 4259.96,6768.20 4256.18,6769.10" disallow="tram rail_urban rail rail_electric rail_fast ship">
        <param key="ref" value="D 45" />
    </edge>
    <edge id="-49747166#4" from="632237347" to="634514238" priority="11" type="highway.secondary" numLanes="1" speed="13.89" disallow="tram rail_urban rail rail_electric rail_fast ship">
        <param key="ref" value="D 45" />
    </edge>
    <edge id="-49747166#5" from="632237263" to="632237347" priority="11" type="highway.secondary" numLanes="1" speed="13.89" shape="4389.79,6648.49 4372.57,6651.84 4327.26,6673.44 4315.02,6680.65" disallow="tram rail_urban rail rail_electric rail_fast ship">
        <param key="ref" value="D 45" />
    </edge>
    <edge id="-49747166#6" from="632237378" to="632237263" priority="11" type="highway.secondary" numLanes="1" speed="13.89" shape="4499.38,6739.41 4482.40,6705.63 4470.87,6690.55 4458.05,6676.10 4447.69,6667.07 4435.55,6658.43 4426.76,6654.30 4416.75,6651.29 4400.80,6648.81 4389.79,6648.49" disallow="tram rail_urban rail rail_electric rail_fast ship">
        <param key="ref" value="D 45" />
    </edge>
    <edge id="-49747166#7" from="632237380" to="632237378" priority="11" type="highway.secondary" numLanes="1" speed="13.89" disallow="tram rail_urban rail rail_electric rail_fast ship">
        <param key="ref" value="D 45" />
    </edge>
    <edge id="-49747167#0" from="632237184" to="5411234147" priority="11" type="highway.secondary" numLanes="1" speed="22.22" shape="3574.68,5352.03 3589.39,5425.61 3610.64,5509.66 3634.19,5576.04 3651.85,5615.61 3684.91,5680.57 3694.12,5708.52" disallow="tram rail_urban rail rail_electric rail_fast ship">
        <param key="ref" value="D 45" />
    </edge>
    <edge id="-49747167#1" from="8467302152" to="632237184" priority="11" type="highway.secondary" numLanes="1" speed="22.22" shape="3545.68,5214.61 3548.19,5222.84 3574.68,5352.03" disallow="tram rail_urban rail rail_electric rail_fast ship">
        <param key="ref" value="D 45" />
    </edge>
    <edge id="-49747167#2" from="1236693598" to="8467302152" priority="11" type="highway.secondary" numLanes="1" speed="22.22" shape="3101.68,4673.93 3167.21,4741.12 3324.92,4901.93 3436.68,5007.33 3455.97,5032.52 3541.32,5200.28 3545.68,5214.61" disallow="tram rail_urban rail rail_electric rail_fast ship">
        <param key="ref" value="D 45" />
    </edge>
    <edge id="-49747167#3" from="638990242" to="1236693598" priority="11" type="highway.secondary" numLanes="1" speed="22.22" shape="2149.53,3514.62 2170.03,3571.73 2179.28,3595.44 2261.38,3805.72 2273.89,3834.38 2297.36,3876.16 2324.58,3914.13 2354.13,3949.26 2389.82,3985.27 2426.17,4014.76 2459.07,4037.00 2503.70,4067.17 2613.89,4141.65 2648.23,4171.09 2906.90,4409.83 2950.07,4452.01 2971.65,4483.08 3046.33,4596.03 3089.70,4661.65 3101.68,4673.93" disallow="tram rail_urban rail rail_electric rail_fast ship">
        <param key="ref" value="D 45" />
    </edge>
    <edge id="-49747168#1" from="632237270" to="632237248" priority="3" type="highway.residential" numLanes="1" speed="13.89" shape="4288.66,6659.92 4243.02,6627.69 4232.81,6625.28" disallow="tram rail_urban rail rail_electric rail_fast ship" />
    <edge id="-49747170#0" from="632237200" to="8828994549" priority="11" type="highway.secondary" numLanes="1" speed="13.89" shape="3961.06,6338.55 3968.32,6345.09 3989.41,6363.46 3995.05,6368.58" disallow="tram rail_urban rail rail_electric rail_fast ship">
        <param key="ref" value="D 45" />
    </edge>