<?xml version="1.0" encoding="UTF-8"?>

<!-- generated on 2025-04-09 04:00:34 by Eclipse SUMO netconvert Version 1.19.0
<configuration xmlns:xsi="http://www.w3.org/2001/XMLSchema-instance" xsi:noNamespaceSchemaLocation="http://sumo.dlr.de/xsd/netconvertConfiguration.xsd">

    <input>
        <sumo-net-file value="maule/maule.net.xml"/>
    </input>

    <output>
        <plain-output-prefix value="maule/maule"/>
    </output>

    <processing>
        <geometry.min-radius.fix.railways value="false"/>
        <geometry.max-grade.fix value="false"/>
        <offset.disable-normalization value="true"/>
        <lefthand value="0"/>
    </processing>

    <tls_building>
        <tls.ignore-internal-junction-jam value="1"/>
    </tls_building>

    <junctions>
        <no-turnarounds value="true"/>
        <junctions.corner-detail value="5"/>
        <junctions.limit-turn-speed value="5.50"/>
        <rectangular-lane-cut value="0"/>
    </junctions>

    <pedestrian>
        <walkingareas value="0"/>
    </pedestrian>

</configuration>
-->

<connections version="1.16" xmlns:xsi="http://www.w3.org/2001/XMLSchema-instance" xsi:noNamespaceSchemaLocation="http://sumo.dlr.de/xsd/connections_file.xsd">
    <connection from="-1019774713" to="1019774714#0" fromLane="0" toLane="0"/>
    <connection from="-1019774713" to="1019774713" fromLane="0" toLane="0"/>

    <connection from="-1019774714#1" to="1019774713" fromLane="0" toLane="0"/>
    <connection from="-1019774714#1" to="1019774714#0" fromLane="0" toLane="0"/>

    <connection from="-1022688361" to="1022688361" fromLane="0" toLane="0"/>

    <connection from="-1024684004#0" to="1024684004#0" fromLane="0" toLane="0"/>

    <connection from="-1024684004#1" to="-1024684004#0" fromLane="0" toLane="0"/>
    <connection from="-1024684004#1" to="1024684004#1" fromLane="0" toLane="0"/>

    <connection from="-1035768262#0" to="-829866476#3" fromLane="0" toLane="0"/>
    <connection from="-1035768262#0" to="1035768262#0" fromLane="0" toLane="0"/>

    <connection from="-1035768262#1" to="-1035768262#0" fromLane="0" toLane="0"/>
    <connection from="-1035768262#1" to="1035768262#1" fromLane="0" toLane="0"/>

    <connection from="-1035768273" to="-891553867#0" fromLane="0" toLane="0"/>
    <connection from="-1035768273" to="891553867#1" fromLane="0" toLane="0"/>

    <connection from="-1035834395" to="-855624558#0" fromLane="0" toLane="0"/>
    <connection from="-1035834395" to="855624558#1" fromLane="0" toLane="0"/>
    <connection from="-1035834395" to="1035834395" fromLane="0" toLane="0"/>

    <connection from="-1035834396" to="-855624560" fromLane="0" toLane="0"/>
    <connection from="-1035834396" to="-717748127#0" fromLane="0" toLane="0"/>
    <connection from="-1035834396" to="717748127#1" fromLane="0" toLane="0"/>
    <connection from="-1035834396" to="1035834396" fromLane="0" toLane="0"/>

    <connection from="-1047683223" to="49929672#2" fromLane="0" toLane="0"/>
    <connection from="-1047683223" to="-49929672#1" fromLane="0" toLane="0"/>
    <connection from="-1047683223" to="1047683223" fromLane="0" toLane="0"/>

    <connection from="-105151363#0" to="105151363#0" fromLane="0" toLane="0"/>

    <connection from="-105151363#1" to="-714886104#2" fromLane="0" toLane="0"/>
    <connection from="-105151363#1" to="-105151363#0" fromLane="0" toLane="0"/>
    <connection from="-105151363#1" to="105151363#1" fromLane="0" toLane="0"/>

    <connection from="-105151363#2" to="-105151363#1" fromLane="0" toLane="0"/>
    <connection from="-105151363#2" to="105151363#2" fromLane="0" toLane="0"/>

    <connection from="-1052658652" to="49929663#1" fromLane="0" toLane="0"/>
    <connection from="-1052658652" to="-49929663#0" fromLane="0" toLane="0"/>
    <connection from="-1052658652" to="1052658652" fromLane="0" toLane="0"/>

    <connection from="-1074327244" to="1074327244" fromLane="0" toLane="0"/>

    <connection from="-107637134#0" to="107637134#0" fromLane="0" toLane="0"/>

    <connection from="-107637134#1" to="-107637134#0" fromLane="0" toLane="0"/>
    <connection from="-107637134#1" to="-107637220#2" fromLane="0" toLane="0"/>
    <connection from="-107637134#1" to="107637134#1" fromLane="0" toLane="0"/>

    <connection from="-107637138" to="-561121954#0" fromLane="0" toLane="0"/>
    <connection from="-107637138" to="561121954#1" fromLane="0" toLane="0"/>
    <connection from="-107637138" to="107637138" fromLane="0" toLane="0"/>

    <connection from="-107637147#0" to="-83726294#1" fromLane="0" toLane="0"/>
    <connection from="-107637147#0" to="83726294#2" fromLane="0" toLane="0"/>
    <connection from="-107637147#0" to="107637147#0" fromLane="0" toLane="0"/>

    <connection from="-107637220#0" to="49747167#3" fromLane="0" toLane="0"/>
    <connection from="-107637220#0" to="-49747167#2" fromLane="0" toLane="0"/>
    <connection from="-107637220#0" to="107637220#0" fromLane="0" toLane="0"/>

    <connection from="-107637220#1" to="-107637220#0" fromLane="0" toLane="0"/>
    <connection from="-107637220#1" to="1312900824" fromLane="0" toLane="0"/>
    <connection from="-107637220#1" to="107637220#1" fromLane="0" toLane="0"/>

    <connection from="-107637220#2" to="-107637220#1" fromLane="0" toLane="0"/>
    <connection from="-107637220#2" to="714940904" fromLane="0" toLane="0"/>
    <connection from="-107637220#2" to="107637220#2" fromLane="0" toLane="0"/>

    <connection from="-107637247" to="107637247" fromLane="0" toLane="0"/>

    <connection from="-107637262" to="-430193518" fromLane="0" toLane="0"/>
    <connection from="-107637262" to="430193519" fromLane="0" toLane="0"/>
    <connection from="-107637262" to="107637262" fromLane="0" toLane="0"/>

    <connection from="-107637271" to="561121954#2" fromLane="0" toLane="0"/>
    <connection from="-107637271" to="-561121954#1" fromLane="0" toLane="0"/>
    <connection from="-107637271" to="107637271" fromLane="0" toLane="0"/>

    <connection from="-107637275#0" to="107637275#0" fromLane="0" toLane="0"/>

    <connection from="-107637275#1" to="-107637275#0" fromLane="0" toLane="0"/>
    <connection from="-107637275#1" to="107637302" fromLane="0" toLane="0"/>
    <connection from="-107637275#1" to="107637275#1" fromLane="0" toLane="0"/>

    <connection from="-107637276#0" to="-83726302#1" fromLane="0" toLane="0" keepClear="0"/>

    <connection from="-107637276#1" to="-107637302" fromLane="0" toLane="0"/>
    <connection from="-107637276#1" to="-107637276#0" fromLane="0" toLane="0"/>
    <connection from="-107637276#1" to="107637276#1" fromLane="0" toLane="0"/>

    <connection from="-107637276#2" to="-107637247" fromLane="0" toLane="0"/>
    <connection from="-107637276#2" to="-107637276#1" fromLane="0" toLane="0"/>
    <connection from="-107637276#2" to="107637276#2" fromLane="0" toLane="0"/>

    <connection from="-107637292#0" to="107637292#0" fromLane="0" toLane="0"/>

    <connection from="-107637292#1" to="-1124462727#1" fromLane="0" toLane="0"/>
    <connection from="-107637292#1" to="-107637292#0" fromLane="0" toLane="0"/>
    <connection from="-107637292#1" to="107637292#1" fromLane="0" toLane="0"/>

    <connection from="-107637292#2" to="-107637292#1" fromLane="0" toLane="0"/>
    <connection from="-107637292#2" to="107637292#2" fromLane="0" toLane="0"/>

    <connection from="-107637302" to="107637275#1" fromLane="0" toLane="0"/>
    <connection from="-107637302" to="-107637275#0" fromLane="0" toLane="0"/>
    <connection from="-107637302" to="107637302" fromLane="0" toLane="0"/>

    <connection from="-107637312" to="107637312" fromLane="0" toLane="0"/>

    <connection from="-1077203009#0" to="209775181#0" fromLane="0" toLane="0"/>
    <connection from="-1077203009#0" to="1077203009#0" fromLane="0" toLane="0"/>

    <connection from="-1077203009#1" to="-1077203009#0" fromLane="0" toLane="0"/>
    <connection from="-1077203009#1" to="1077203009#1" fromLane="0" toLane="0"/>

    <connection from="-1081931594#0" to="-49747648#1" fromLane="0" toLane="0"/>
    <connection from="-1081931594#0" to="49747648#2" fromLane="0" toLane="0"/>
    <connection from="-1081931594#0" to="1081931594#0" fromLane="0" toLane="0"/>

    <connection from="-1081931594#1" to="-1081931594#0" fromLane="0" toLane="0"/>
    <connection from="-1081931594#1" to="1081931594#1" fromLane="0" toLane="0"/>

    <connection from="-1081931594#2" to="-1081931594#1" fromLane="0" toLane="0"/>
    <connection from="-1081931594#2" to="1239652342" fromLane="0" toLane="0"/>
    <connection from="-1081931594#2" to="1081931594#2" fromLane="0" toLane="0"/>

    <connection from="-1089299196" to="-146496966#0" fromLane="0" toLane="0"/>
    <connection from="-1089299196" to="146496966#1" fromLane="0" toLane="0"/>
    <connection from="-1089299196" to="1089299196" fromLane="0" toLane="0"/>

    <connection from="-1089299199" to="-49795817#3" fromLane="0" toLane="0"/>
    <connection from="-1089299199" to="49795817#4" fromLane="0" toLane="0"/>
    <connection from="-1089299199" to="1089299199" fromLane="0" toLane="0"/>

    <connection from="-1089299200" to="-49795817#1" fromLane="0" toLane="0"/>
    <connection from="-1089299200" to="49795817#2" fromLane="0" toLane="0"/>
    <connection from="-1089299200" to="1089299200" fromLane="0" toLane="0"/>

    <connection from="-1101438486" to="-49929670#2" fromLane="0" toLane="0"/>
    <connection from="-1101438486" to="501381436" fromLane="0" toLane="0"/>
    <connection from="-1101438486" to="49929679" fromLane="0" toLane="0"/>
    <connection from="-1101438486" to="1101438486" fromLane="0" toLane="0"/>

    <connection from="-1101438487" to="49747166#8" fromLane="0" toLane="0"/>
    <connection from="-1101438487" to="-49747166#7" fromLane="0" toLane="0"/>
    <connection from="-1101438487" to="1101438487" fromLane="0" toLane="0"/>

    <connection from="-1104050285" to="49929647#3" fromLane="0" toLane="0"/>
    <connection from="-1104050285" to="-49929647#2" fromLane="0" toLane="0"/>
    <connection from="-1104050285" to="1104050285" fromLane="0" toLane="0"/>

    <connection from="-1104050286" to="49929647#2" fromLane="0" toLane="0"/>
    <connection from="-1104050286" to="-49929647#1" fromLane="0" toLane="0"/>
    <connection from="-1104050286" to="1104050286" fromLane="0" toLane="0"/>

    <connection from="-1113710346" to="-561124137#2" fromLane="0" toLane="0"/>
    <connection from="-1113710346" to="-561124137#2" fromLane="1" toLane="1"/>
    <connection from="-1113710346" to="49929648" fromLane="1" toLane="0"/>

    <connection from="-1113710347" to="-561124138" fromLane="0" toLane="0"/>
    <connection from="-1113710347" to="-561124138" fromLane="1" toLane="1"/>
    <connection from="-1113710347" to="-1113710348#1" fromLane="1" toLane="0"/>

    <connection from="-1113710348#0" to="266630452" fromLane="0" toLane="0"/>
    <connection from="-1113710348#0" to="-1115972826" fromLane="0" toLane="0"/>
    <connection from="-1113710348#0" to="1113710348#0" fromLane="0" toLane="0"/>

    <connection from="-1113710348#1" to="-1113710348#0" fromLane="0" toLane="0"/>
    <connection from="-1113710348#1" to="1113710348#1" fromLane="0" toLane="0"/>

    <connection from="-1113710349#0" to="49929647#1" fromLane="0" toLane="0"/>
    <connection from="-1113710349#0" to="-49929647#0" fromLane="0" toLane="0"/>
    <connection from="-1113710349#0" to="49929650" fromLane="0" toLane="0"/>

    <connection from="-1113710349#1" to="49929651" fromLane="0" toLane="0"/>
    <connection from="-1113710349#1" to="-1113710349#0" fromLane="0" toLane="0"/>
    <connection from="-1113710349#1" to="1113710349#1" fromLane="0" toLane="0"/>

    <connection from="-1113710349#2" to="1159223039" fromLane="0" toLane="0"/>
    <connection from="-1113710349#2" to="-1113710349#1" fromLane="0" toLane="0"/>
    <connection from="-1113710349#2" to="1113710349#2" fromLane="0" toLane="0"/>

    <connection from="-1113710350" to="49747166#6" fromLane="0" toLane="0"/>
    <connection from="-1113710350" to="-49747166#5" fromLane="0" toLane="0"/>
    <connection from="-1113710350" to="1113710351" fromLane="0" toLane="0"/>

    <connection from="-1115972826" to="-49929648" fromLane="0" toLane="0"/>
    <connection from="-1115972826" to="1115972826" fromLane="0" toLane="0"/>

    <connection from="-1115973330#0" to="1115973330#0" fromLane="0" toLane="0"/>

    <connection from="-1115973330#1" to="-1115973330#0" fromLane="0" toLane="0"/>
    <connection from="-1115973330#1" to="1115973330#1" fromLane="0" toLane="0"/>

    <connection from="-1115973330#2" to="-1115973330#1" fromLane="0" toLane="0"/>
    <connection from="-1115973330#2" to="-266630452" fromLane="0" toLane="0"/>
    <connection from="-1115973330#2" to="1115973330#2" fromLane="0" toLane="0"/>

    <connection from="-1115973330#3" to="-1115973330#2" fromLane="0" toLane="0"/>
    <connection from="-1115973330#3" to="1115973330#3" fromLane="0" toLane="0"/>

    <connection from="-1119964870" to="-560475252#0" fromLane="0" toLane="0"/>
    <connection from="-1119964870" to="560475252#1" fromLane="0" toLane="1"/>
    <connection from="-1119964870" to="1119964870" fromLane="0" toLane="0"/>

    <connection from="-1121460555" to="142610600#1" fromLane="0" toLane="0"/>
    <connection from="-1121460555" to="-142610600#0" fromLane="0" toLane="0"/>
    <connection from="-1121460555" to="1121460555" fromLane="0" toLane="0"/>

    <connection from="-1123596332" to="-889642426#0" fromLane="0" toLane="0"/>
    <connection from="-1123596332" to="889642426#1" fromLane="0" toLane="0"/>
    <connection from="-1123596332" to="1123596332" fromLane="0" toLane="0"/>

    <connection from="-1123596333#0" to="-889642426#1" fromLane="0" toLane="0" keepClear="0"/>

    <connection from="-1123596333#1" to="1123596334" fromLane="0" toLane="0"/>
    <connection from="-1123596333#1" to="-1123596333#0" fromLane="0" toLane="0"/>
    <connection from="-1123596333#1" to="1123596333#1" fromLane="0" toLane="0"/>

    <connection from="-1123596334" to="-1123596333#0" fromLane="0" toLane="0"/>
    <connection from="-1123596334" to="1123596333#1" fromLane="0" toLane="0"/>
    <connection from="-1123596334" to="1123596334" fromLane="0" toLane="0"/>

    <connection from="-1124177009" to="501381435#2" fromLane="0" toLane="0"/>
    <connection from="-1124177009" to="-501381435#1" fromLane="0" toLane="0"/>
    <connection from="-1124177009" to="1124177009" fromLane="0" toLane="0"/>

    <connection from="-1124462726#0" to="-49929645#3" fromLane="0" toLane="0"/>
    <connection from="-1124462726#0" to="49929645#4" fromLane="0" toLane="0"/>
    <connection from="-1124462726#0" to="1124462726#0" fromLane="0" toLane="0"/>

    <connection from="-1124462727#0" to="-1124462726#0" fromLane="0" toLane="0"/>
    <connection from="-1124462727#0" to="1124462726#1" fromLane="0" toLane="0"/>
    <connection from="-1124462727#0" to="1124462727#0" fromLane="0" toLane="0"/>

    <connection from="-1124462727#1" to="-1124462727#0" fromLane="0" toLane="0"/>
    <connection from="-1124462727#1" to="1124462727#1" fromLane="0" toLane="0"/>

    <connection from="-1126529614" to="49129829#2" fromLane="0" toLane="0"/>
    <connection from="-1126529614" to="-49129829#1" fromLane="0" toLane="0"/>
    <connection from="-1126529614" to="1126529614" fromLane="0" toLane="0"/>

    <connection from="-1135540565" to="49795771#1" fromLane="0" toLane="0"/>
    <connection from="-1135540565" to="-49795771#0" fromLane="0" toLane="0"/>
    <connection from="-1135540565" to="1135540565" fromLane="0" toLane="0"/>

    <connection from="-1136128235" to="-560475250#1" fromLane="0" toLane="0" keepClear="0"/>

    <connection from="-1152766349" to="-1152766350" fromLane="0" toLane="0"/>

    <connection from="-1152766350" to="49747177" fromLane="0" toLane="0"/>
    <connection from="-1152766350" to="-49747174" fromLane="0" toLane="0"/>

    <connection from="-1152766351#0" to="-49929686" fromLane="0" toLane="0"/>
    <connection from="-1152766351#0" to="1152766351#0" fromLane="0" toLane="0"/>

    <connection from="-1152766351#1" to="285871859" fromLane="0" toLane="0"/>
    <connection from="-1152766351#1" to="-1152766351#0" fromLane="0" toLane="0"/>
    <connection from="-1152766351#1" to="1152766351#1" fromLane="0" toLane="0"/>

    <connection from="-1152766351#2" to="-1152766351#1" fromLane="0" toLane="0"/>

    <connection from="-1152766351#3" to="-1152766351#2" fromLane="0" toLane="0"/>
    <connection from="-1152766351#3" to="-49929663#4" fromLane="0" toLane="0"/>
    <connection from="-1152766351#3" to="1152766351#3" fromLane="0" toLane="0"/>

    <connection from="-1152766351#4" to="-1152766351#3" fromLane="0" toLane="0"/>
    <connection from="-1152766351#4" to="-49929664#15" fromLane="0" toLane="0"/>
    <connection from="-1152766351#4" to="1152766351#4" fromLane="0" toLane="0"/>

    <connection from="-1159223036" to="49929664#1" fromLane="0" toLane="0"/>
    <connection from="-1159223036" to="-49929664#0" fromLane="0" toLane="0"/>
    <connection from="-1159223036" to="1159223036" fromLane="0" toLane="0"/>

    <connection from="-1159223039" to="-1113710349#1" fromLane="0" toLane="0"/>
    <connection from="-1159223039" to="1113710349#2" fromLane="0" toLane="0"/>
    <connection from="-1159223039" to="1159223039" fromLane="0" toLane="0"/>

    <connection from="-1163710303" to="-854945023#1" fromLane="0" toLane="0"/>
    <connection from="-1163710303" to="854945023#2" fromLane="0" toLane="0"/>
    <connection from="-1163710303" to="1163710303" fromLane="0" toLane="0"/>

    <connection from="-1163710305#0" to="1163710305#0" fromLane="0" toLane="0"/>

    <connection from="-1163710305#1" to="-1163710308" fromLane="0" toLane="0"/>
    <connection from="-1163710305#1" to="-1163710305#0" fromLane="0" toLane="0"/>
    <connection from="-1163710305#1" to="1163710306" fromLane="0" toLane="0"/>
    <connection from="-1163710305#1" to="1163710305#1" fromLane="0" toLane="0"/>

    <connection from="-1163710308" to="1163710308" fromLane="0" toLane="0"/>

    <connection from="-1167403594#0" to="-1167403595" fromLane="0" toLane="0"/>

    <connection from="-1167403595" to="-49747171" fromLane="0" toLane="0"/>
    <connection from="-1167403595" to="1167403593" fromLane="0" toLane="0"/>

    <connection from="-1168585143" to="-1168585144#1" fromLane="0" toLane="0"/>
    <connection from="-1168585143" to="49929672#0" fromLane="0" toLane="0"/>
    <connection from="-1168585143" to="1168585143" fromLane="0" toLane="0"/>

    <connection from="-1168585144#0" to="-49929671#0" fromLane="0" toLane="0"/>
    <connection from="-1168585144#0" to="49929671#1" fromLane="0" toLane="0"/>
    <connection from="-1168585144#0" to="1168585144#0" fromLane="0" toLane="0"/>

    <connection from="-1168585144#1" to="-49929679" fromLane="0" toLane="0"/>
    <connection from="-1168585144#1" to="-1168585144#0" fromLane="0" toLane="0"/>
    <connection from="-1168585144#1" to="49929673#0" fromLane="0" toLane="0"/>
    <connection from="-1168585144#1" to="1168585144#1" fromLane="0" toLane="0"/>

    <connection from="-1172537414" to="-547085750#3" fromLane="0" toLane="0"/>
    <connection from="-1172537414" to="1121038033" fromLane="0" toLane="0"/>
    <connection from="-1172537414" to="1172537414" fromLane="0" toLane="0"/>

    <connection from="-1180664303" to="-49747164#6" fromLane="0" toLane="0"/>
    <connection from="-1180664303" to="49747164#7" fromLane="0" toLane="1"/>
    <connection from="-1180664303" to="1180664303" fromLane="0" toLane="0"/>

    <connection from="-1180664304" to="-829872389#2" fromLane="0" toLane="0"/>
    <connection from="-1180664304" to="829872389#3" fromLane="0" toLane="0"/>
    <connection from="-1180664304" to="1180664304" fromLane="0" toLane="0"/>

    <connection from="-1190451330" to="561119853#2" fromLane="0" toLane="0"/>
    <connection from="-1190451330" to="-561119853#1" fromLane="0" toLane="0"/>
    <connection from="-1190451330" to="1190451330" fromLane="0" toLane="0"/>

    <connection from="-1216086997" to="-561124150#3" fromLane="0" toLane="0"/>
    <connection from="-1216086997" to="561124150#4" fromLane="0" toLane="0"/>
    <connection from="-1216086997" to="1216086997" fromLane="0" toLane="0"/>

    <connection from="-1219470453" to="-463687741#0" fromLane="0" toLane="0"/>
    <connection from="-1219470453" to="463687741#1" fromLane="0" toLane="0"/>
    <connection from="-1219470453" to="-1219470466" fromLane="0" toLane="0"/>

    <connection from="-1219470454" to="1219470462#4" fromLane="0" toLane="0"/>
    <connection from="-1219470454" to="-1219470462#3" fromLane="0" toLane="0"/>
    <connection from="-1219470454" to="1219470454" fromLane="0" toLane="0"/>

    <connection from="-1219470455" to="-1219470458#0" fromLane="0" toLane="0"/>
    <connection from="-1219470455" to="1219470458#1" fromLane="0" toLane="0"/>
    <connection from="-1219470455" to="1219470455" fromLane="0" toLane="0"/>

    <connection from="-1219470456" to="1219470457#1" fromLane="0" toLane="0"/>
    <connection from="-1219470456" to="-1219470457#0" fromLane="0" toLane="0"/>
    <connection from="-1219470456" to="1219470456" fromLane="0" toLane="0"/>

    <connection from="-1219470457#0" to="-1219470458#1" fromLane="0" toLane="0"/>
    <connection from="-1219470457#0" to="1219470458#2" fromLane="0" toLane="0"/>
    <connection from="-1219470457#0" to="1219470457#0" fromLane="0" toLane="0"/>

    <connection from="-1219470457#1" to="-1219470457#0" fromLane="0" toLane="0"/>
    <connection from="-1219470457#1" to="1219470456" fromLane="0" toLane="0"/>
    <connection from="-1219470457#1" to="1219470457#1" fromLane="0" toLane="0"/>

    <connection from="-1219470458#0" to="-1219470465#4" fromLane="0" toLane="0"/>
    <connection from="-1219470458#0" to="1219470465#5" fromLane="0" toLane="0"/>
    <connection from="-1219470458#0" to="1219470458#0" fromLane="0" toLane="0"/>

    <connection from="-1219470458#1" to="1219470455" fromLane="0" toLane="0"/>
    <connection from="-1219470458#1" to="-1219470458#0" fromLane="0" toLane="0"/>
    <connection from="-1219470458#1" to="1219470458#1" fromLane="0" toLane="0"/>

    <connection from="-1219470458#2" to="1219470457#0" fromLane="0" toLane="0"/>
    <connection from="-1219470458#2" to="-1219470458#1" fromLane="0" toLane="0"/>
    <connection from="-1219470458#2" to="1219470458#2" fromLane="0" toLane="0"/>

    <connection from="-1219470458#3" to="-1219470458#2" fromLane="0" toLane="0"/>
    <connection from="-1219470458#3" to="-1219470453" fromLane="0" toLane="0"/>
    <connection from="-1219470458#3" to="1219470458#3" fromLane="0" toLane="0"/>

    <connection from="-1219470458#4" to="-1219470456" fromLane="0" toLane="0"/>
    <connection from="-1219470458#4" to="-1219470458#3" fromLane="0" toLane="0"/>
    <connection from="-1219470458#4" to="1219470458#4" fromLane="0" toLane="0"/>

    <connection from="-1219470459" to="1219470465#3" fromLane="0" toLane="0"/>
    <connection from="-1219470459" to="-1219470465#2" fromLane="0" toLane="0"/>
    <connection from="-1219470459" to="1219470459" fromLane="0" toLane="0"/>

    <connection from="-1219470460" to="-1219470461#0" fromLane="0" toLane="0"/>
    <connection from="-1219470460" to="1219470461#1" fromLane="0" toLane="0"/>
    <connection from="-1219470460" to="1219470460" fromLane="0" toLane="0"/>

    <connection from="-1219470461#0" to="-1219470462#2" fromLane="0" toLane="0"/>
    <connection from="-1219470461#0" to="1219470462#3" fromLane="0" toLane="0"/>
    <connection from="-1219470461#0" to="1219470461#0" fromLane="0" toLane="0"/>

    <connection from="-1219470461#1" to="1219470460" fromLane="0" toLane="0"/>
    <connection from="-1219470461#1" to="-1219470461#0" fromLane="0" toLane="0"/>
    <connection from="-1219470461#1" to="1219470461#1" fromLane="0" toLane="0"/>

    <connection from="-1219470462#0" to="-1219470464#0" fromLane="0" toLane="0"/>
    <connection from="-1219470462#0" to="1219470464#1" fromLane="0" toLane="0"/>
    <connection from="-1219470462#0" to="1219470462#0" fromLane="0" toLane="0"/>

    <connection from="-1219470462#1" to="1219470465#10" fromLane="0" toLane="0"/>
    <connection from="-1219470462#1" to="-1219470462#0" fromLane="0" toLane="0"/>
    <connection from="-1219470462#1" to="-1219470465#9" fromLane="0" toLane="0"/>
    <connection from="-1219470462#1" to="1219470462#1" fromLane="0" toLane="0"/>

    <connection from="-1219470462#2" to="-1219470459" fromLane="0" toLane="0"/>
    <connection from="-1219470462#2" to="-1219470462#1" fromLane="0" toLane="0"/>
    <connection from="-1219470462#2" to="1219470462#2" fromLane="0" toLane="0"/>

    <connection from="-1219470462#3" to="1219470461#0" fromLane="0" toLane="0"/>
    <connection from="-1219470462#3" to="-1219470462#2" fromLane="0" toLane="0"/>
    <connection from="-1219470462#3" to="1219470462#3" fromLane="0" toLane="0"/>

    <connection from="-1219470462#4" to="-1219470462#3" fromLane="0" toLane="0"/>
    <connection from="-1219470462#4" to="1219470454" fromLane="0" toLane="0"/>
    <connection from="-1219470462#4" to="1219470462#4" fromLane="0" toLane="0"/>

    <connection from="-1219470463" to="-1219470464#1" fromLane="0" toLane="0"/>
    <connection from="-1219470463" to="1219470464#2" fromLane="0" toLane="0"/>
    <connection from="-1219470463" to="1219470463" fromLane="0" toLane="0"/>

    <connection from="-1219470464#0" to="1219470465#1" fromLane="0" toLane="0"/>
    <connection from="-1219470464#0" to="-1219470465#0" fromLane="0" toLane="0"/>
    <connection from="-1219470464#0" to="1219470464#0" fromLane="0" toLane="0"/>

    <connection from="-1219470464#1" to="1219470462#0" fromLane="0" toLane="0"/>
    <connection from="-1219470464#1" to="-1219470464#0" fromLane="0" toLane="0"/>
    <connection from="-1219470464#1" to="1219470464#1" fromLane="0" toLane="0"/>

    <connection from="-1219470464#2" to="1219470463" fromLane="0" toLane="0"/>
    <connection from="-1219470464#2" to="-1219470464#1" fromLane="0" toLane="0"/>
    <connection from="-1219470464#2" to="1219470464#2" fromLane="0" toLane="0"/>

    <connection from="-1219470465#0" to="1219470465#0" fromLane="0" toLane="0"/>

    <connection from="-1219470465#1" to="-1219470465#0" fromLane="0" toLane="0"/>
    <connection from="-1219470465#1" to="1219470464#0" fromLane="0" toLane="0"/>
    <connection from="-1219470465#1" to="1219470465#1" fromLane="0" toLane="0"/>

    <connection from="-1219470465#10" to="-1219470462#0" fromLane="0" toLane="0"/>
    <connection from="-1219470465#10" to="-1219470465#9" fromLane="0" toLane="0"/>
    <connection from="-1219470465#10" to="1219470462#1" fromLane="0" toLane="0"/>
    <connection from="-1219470465#10" to="1219470465#10" fromLane="0" toLane="0"/>

    <connection from="-1219470465#2" to="-1219470465#1" fromLane="0" toLane="0"/>
    <connection from="-1219470465#2" to="-1219470465#10" fromLane="0" toLane="0"/>
    <connection from="-1219470465#2" to="1219470465#2" fromLane="0" toLane="0"/>

    <connection from="-1219470465#3" to="-1219470465#2" fromLane="0" toLane="0"/>
    <connection from="-1219470465#3" to="1219470459" fromLane="0" toLane="0"/>
    <connection from="-1219470465#3" to="1219470465#3" fromLane="0" toLane="0"/>

    <connection from="-1219470465#4" to="-1219470465#3" fromLane="0" toLane="0"/>
    <connection from="-1219470465#4" to="-1219470460" fromLane="0" toLane="0"/>
    <connection from="-1219470465#4" to="1219470465#4" fromLane="0" toLane="0"/>

    <connection from="-1219470465#5" to="1219470458#0" fromLane="0" toLane="0"/>
    <connection from="-1219470465#5" to="-1219470465#4" fromLane="0" toLane="0"/>
    <connection from="-1219470465#5" to="1219470465#5" fromLane="0" toLane="0"/>

    <connection from="-1219470465#6" to="-1219470465#5" fromLane="0" toLane="0"/>
    <connection from="-1219470465#6" to="-1219470461#1" fromLane="0" toLane="0"/>
    <connection from="-1219470465#6" to="1219470465#6" fromLane="0" toLane="0"/>

    <connection from="-1219470465#7" to="-1219470465#6" fromLane="0" toLane="0"/>
    <connection from="-1219470465#7" to="-1219470462#4" fromLane="0" toLane="0"/>
    <connection from="-1219470465#7" to="1219470465#7" fromLane="0" toLane="0"/>

    <connection from="-1219470465#8" to="-1219470464#2" fromLane="0" toLane="0"/>
    <connection from="-1219470465#8" to="-1219470465#7" fromLane="0" toLane="0"/>
    <connection from="-1219470465#8" to="1219470465#8" fromLane="0" toLane="0"/>

    <connection from="-1219470465#9" to="-1219470463" fromLane="0" toLane="0"/>
    <connection from="-1219470465#9" to="-1219470465#8" fromLane="0" toLane="0"/>
    <connection from="-1219470465#9" to="-1219470454" fromLane="0" toLane="0"/>
    <connection from="-1219470465#9" to="1219470465#9" fromLane="0" toLane="0"/>

    <connection from="-1219470466" to="1219470458#3" fromLane="0" toLane="0"/>
    <connection from="-1219470466" to="-1219470458#2" fromLane="0" toLane="0"/>
    <connection from="-1219470466" to="-1219470453" fromLane="0" toLane="0"/>

    <connection from="-1228486786#0" to="-49747170#3" fromLane="0" toLane="0"/>

    <connection from="-1228486786#1" to="-1228486786#0" fromLane="0" toLane="0"/>

    <connection from="-1228486786#2" to="-857843014#1" fromLane="0" toLane="0"/>
    <connection from="-1228486786#2" to="-1228486786#1" fromLane="0" toLane="0"/>
    <connection from="-1228486786#2" to="-561124153#1" fromLane="0" toLane="0"/>
    <connection from="-1228486786#2" to="1228486786#2" fromLane="0" toLane="0"/>

    <connection from="-1228486786#3" to="-1228486786#2" fromLane="0" toLane="0"/>

    <connection from="-1228486786#4" to="-1228486786#3" fromLane="0" toLane="0"/>
    <connection from="-1228486786#4" to="-903550220" fromLane="0" toLane="0"/>
    <connection from="-1228486786#4" to="1228486786#4" fromLane="0" toLane="0"/>

    <connection from="-1228486787#0" to="-146496971#1" fromLane="0" toLane="0"/>