<?xml version="1.0" encoding="UTF-8"?>

<!-- generated on 2025-04-04 16:24:34 by Eclipse SUMO netconvert Version 1.19.0
<configuration xmlns:xsi="http://www.w3.org/2001/XMLSchema-instance" xsi:noNamespaceSchemaLocation="http://sumo.dlr.de/xsd/netconvertConfiguration.xsd">

    <input>
        <sumo-net-file value="ozoir_la_ferriere/ozoir_la_ferriere.net.xml"/>
    </input>

    <output>
        <plain-output-prefix value="ozoir_la_ferriere/ozoir_la_ferriere"/>
    </output>

    <processing>
        <geometry.min-radius.fix.railways value="false"/>
        <geometry.max-grade.fix value="false"/>
        <offset.disable-normalization value="true"/>
        <lefthand value="0"/>
    </processing>

    <tls_building>
        <tls.ignore-internal-junction-jam value="1"/>
    </tls_building>

    <junctions>
        <no-turnarounds value="true"/>
        <junctions.corner-detail value="5"/>
        <junctions.limit-turn-speed value="5.50"/>
        <rectangular-lane-cut value="0"/>
    </junctions>

    <pedestrian>
        <walkingareas value="0"/>
    </pedestrian>

</configuration>
-->

<edges version="1.16" xmlns:xsi="http://www.w3.org/2001/XMLSchema-instance" xsi:noNamespaceSchemaLocation="http://sumo.dlr.de/xsd/edges_file.xsd">
    <location netOffset="-471823.31,-5397684.60" convBoundary="0.00,0.00,8276.52,6939.14" origBoundary="2.616508,48.731701,2.729700,48.794092" projParameter="+proj=utm +zone=31 +ellps=WGS84 +datum=WGS84 +units=m +no_defs"/>

    <edge id="-1006698787#0" from="1446829272" to="559433012" priority="1" type="highway.path" numLanes="1" speed="5.56" shape="1682.05,3713.86 1672.00,3704.21 1385.87,3429.26 1371.32,3418.15 1316.04,3375.94 1216.71,3299.57 1214.97,3297.29 1202.79,3281.38 1199.33,3257.42 1198.20,3181.14 1197.82,3161.92 1191.94,2863.86 1194.76,2861.04" width="2.00" allow="pedestrian bicycle"/>
    <edge id="-1006698787#1" from="1446829292" to="1446829272" priority="1" type="highway.path" numLanes="1" speed="5.56" shape="2136.53,4011.47 2047.59,3933.00 1982.16,3894.59 1941.23,3867.07 1850.58,3784.76 1840.72,3784.21 1806.70,3760.40 1777.66,3747.17 1715.49,3729.38 1685.87,3717.54 1682.05,3713.86" width="2.00" allow="pedestrian bicycle"/>
    <edge id="-101086967#1" from="3339721697" to="cluster_302715440_6263483200" priority="11" type="highway.secondary" numLanes="1" speed="25.00" shape="3324.12,3591.06 3227.87,3625.61" disallow="tram rail_urban rail rail_electric rail_fast ship">
        <param key="ref" value="D 350"/>
    </edge>
    <edge id="-101086967#2" from="3339721696" to="3339721697" priority="11" type="highway.secondary" numLanes="1" speed="25.00" disallow="tram rail_urban rail rail_electric rail_fast ship">
        <param key="ref" value="D 350"/>
    </edge>
    <edge id="-1021465697" from="9420972727" to="9420972733" priority="1" type="highway.service" numLanes="1" speed="5.56" allow="pedestrian delivery bicycle"/>
    <edge id="-102309662" from="459461114" to="459461100" priority="3" type="highway.residential" numLanes="1" speed="8.33" shape="3815.72,3141.06 3812.60,3226.97 3812.47,3230.32" disallow="tram rail_urban rail rail_electric rail_fast ship"/>
    <edge id="-102309663#0" from="1180955428" to="459399235" priority="10" type="highway.tertiary" numLanes="1" speed="13.89" shape="4049.66,3133.17 4051.07,3100.14 4052.11,3077.09 4053.03,3056.79" disallow="tram rail_urban rail rail_electric rail_fast ship">
        <param key="ref" value="D 35"/>
    </edge>
    <edge id="-102309663#1" from="459399243" to="1180955428" priority="10" type="highway.tertiary" numLanes="1" speed="13.89" shape="4040.75,3162.20 4042.75,3158.99 4044.87,3155.12 4046.10,3152.19 4047.32,3148.50 4048.76,3142.02 4049.66,3133.17" disallow="tram rail_urban rail rail_electric rail_fast ship">
        <param key="ref" value="D 35"/>
    </edge>
    <edge id="-102309663#2" from="459399246" to="459399243" priority="10" type="highway.tertiary" numLanes="1" speed="13.89" shape="4025.88,3192.30 4026.47,3187.45 4027.00,3185.01 4029.55,3178.00 4035.32,3169.56 4040.75,3162.20" disallow="tram rail_urban rail rail_electric rail_fast ship">
        <param key="ref" value="D 35"/>
    </edge>
    <edge id="-102309663#3" from="cluster_459399247_459448741" to="459399246" priority="10" type="highway.tertiary" numLanes="1" speed="13.89" shape="4021.45,3240.92 4023.20,3225.79 4025.88,3192.30" disallow="tram rail_urban rail rail_electric rail_fast ship">
        <param key="ref" value="D 35"/>
    </edge>
    <edge id="-102309663#5" from="459453997" to="cluster_459399247_459448741" priority="10" type="highway.tertiary" numLanes="1" speed="13.89" shape="4016.08,3410.47 4015.55,3406.96 4015.17,3404.49 4016.83,3331.44 4019.15,3264.72 4019.50,3259.05" disallow="tram rail_urban rail rail_electric rail_fast ship">
        <param key="ref" value="D 35"/>
    </edge>
    <edge id="-1023390767#0" from="4415735385" to="4415735195" priority="1" type="highway.service" numLanes="1" speed="5.56" allow="pedestrian delivery bicycle"/>
    <edge id="-1023390767#1" from="4415735570" to="4415735385" priority="1" type="highway.service" numLanes="1" speed="5.56" allow="pedestrian delivery bicycle"/>
    <edge id="-1029412557#0" from="9878748276" to="459802550" priority="1" type="highway.path" numLanes="1" speed="5.56" shape="5042.48,4671.02 5046.44,4679.61 5050.36,4683.70 5058.55,4701.96" width="2.00" allow="pedestrian bicycle"/>
    <edge id="-1029412557#1" from="9878748275" to="9878748276" priority="1" type="highway.path" numLanes="1" speed="5.56" width="2.00" allow="pedestrian bicycle"/>
    <edge id="-1032009139" from="9200266649" to="2836657034" priority="1" type="highway.path" numLanes="1" speed="5.56" width="2.00" allow="pedestrian bicycle"/>
    <edge id="-1032009708#0" from="9510538978" to="4365567075" priority="1" type="highway.service" numLanes="1" speed="5.56" shape="3975.28,4572.43 3978.61,4572.64 3980.17,4551.17" allow="pedestrian delivery bicycle"/>
    <edge id="-1032009708#1" from="4427055986" to="9510538978" priority="1" type="highway.service" numLanes="1" speed="5.56" allow="pedestrian delivery bicycle"/>
    <edge id="-1032009709" from="9510538978" to="8694940619" priority="1" type="highway.path" numLanes="1" speed="5.56" shape="3975.28,4572.43 3975.45,4585.34 3988.68,4604.85" width="2.00" allow="pedestrian bicycle"/>
    <edge id="-1032010502" from="270708178" to="4033921729" priority="1" type="highway.path" numLanes="1" speed="5.56" shape="4004.25,5459.20 4013.01,5461.07 4023.89,5466.21 4033.69,5469.56" width="2.00" allow="pedestrian bicycle"/>
    <edge id="-1038084653" from="3129384592" to="9561277132" priority="1" type="highway.path" numLanes="1" speed="5.56" shape="5748.34,4629.51 5737.42,4619.29 5727.29,4607.19 5705.92,4615.16 5687.23,4614.25 5658.28,4612.09 5644.75,4617.14 5622.96,4605.95 5619.44,4606.75 5614.81,4606.43 5610.19,4604.25 5595.17,4600.50 5578.90,4595.29 5563.92,4595.21 5559.39,4592.30" width="2.00" allow="pedestrian bicycle"/>
    <edge id="-1042696754" from="9597861697" to="3129384603" priority="1" type="highway.path" numLanes="1" speed="5.56" shape="5414.42,5180.64 5388.51,5191.04 5366.86,5179.35 5352.70,5183.45 5337.18,5184.51 5324.99,5175.81 5305.77,5179.59 5295.33,5186.04 5270.71,5189.84 5253.13,5182.51 5230.11,5187.90" width="2.00" allow="pedestrian bicycle"/>
    <edge id="-104570227" from="1206499402" to="cluster_1206499404_302719019" priority="3" type="highway.residential" numLanes="1" speed="8.33" shape="2476.22,2561.62 2465.52,2566.71 2444.14,2597.15" disallow="tram rail_urban rail rail_electric rail_fast ship"/>
    <edge id="-104570229" from="cluster_1206499387_302719049" to="1206499362" priority="3" type="highway.residential" numLanes="1" speed="8.33" shape="2512.37,2678.46 2505.52,2689.06 2489.80,2713.50 2475.99,2712.77" disallow="tram rail_urban rail rail_electric rail_fast ship"/>
    <edge id="-1049280072" from="9642920607" to="8409006023" priority="1" type="highway.track" numLanes="1" speed="5.56" shape="3252.80,2243.45 3128.52,2139.42 2980.44,2071.77" allow="pedestrian motorcycle moped bicycle"/>
    <edge id="-1049280073" from="8409006017" to="8409006021" priority="1" type="highway.track" numLanes="1" speed="5.56" shape="2940.68,1936.15 2858.74,1952.70 2844.50,1943.32 2705.82,1971.47 2682.12,1962.14 2668.64,1945.69 2656.86,1936.63 2629.06,1915.21 2623.49,1904.22 2605.26,1883.86 2573.56,1851.76 2547.31,1800.76 2552.00,1751.20" allow="pedestrian motorcycle moped bicycle"/>
    <edge id="-1056723864" from="cluster_8645332562_9710057848" to="cluster_2854026315_8694940626_9710057842" priority="1" type="highway.path" numLanes="1" speed="5.56" shape="3900.39,4745.62 3908.08,4746.36 3913.30,4750.22 3931.79,4758.96 3944.83,4765.91 3956.04,4773.37 3966.28,4779.10" width="2.00" allow="pedestrian bicycle"/>
    <edge id="-1057421493#0" from="5687781538" to="cluster_10159497331_302718502_459460404" priority="1" type="highway.cycleway" numLanes="1" speed="5.56" shape="3373.73,3265.16 3371.73,3263.10 3371.52,3259.85 3372.39,3256.31 3373.56,3251.58 3373.54,3247.66 3371.93,3242.16 3368.94,3238.18 3299.45,3159.19 3294.62,3155.70" width="2.00" allow="bicycle"/>
    <edge id="-1057421493#1" from="12486308741" to="5687781538" priority="1" type="highway.cycleway" numLanes="1" speed="5.56" shape="3397.61,3270.94 3396.89,3270.55 3390.68,3269.40 3385.26,3268.84 3379.44,3268.37 3376.18,3267.70 3373.73,3265.16" width="2.00" allow="bicycle"/>
    <edge id="-1057746813#0" from="9719146259" to="2268259465" priority="1" type="highway.service" numLanes="1" speed="5.56" shape="4452.75,4842.34 4469.28,4835.20 4482.37,4829.75" allow="pedestrian delivery bicycle"/>
    <edge id="-1057746813#1" from="9719146262" to="9719146259" priority="1" type="highway.service" numLanes="1" speed="5.56" shape="4442.67,4833.75 4444.46,4838.25 4448.22,4841.97 4452.75,4842.34" allow="pedestrian delivery bicycle"/>
    <edge id="-1057746813#2" from="2268259465" to="9719146262" priority="1" type="highway.service" numLanes="1" speed="5.56" shape="4482.37,4829.75 4475.30,4814.55 4448.35,4826.44 4444.63,4829.81 4442.67,4833.75" allow="pedestrian delivery bicycle"/>
    <edge id="-1058219155" from="3129399614" to="9723803544" priority="1" type="highway.path" numLanes="1" speed="5.56" width="2.00" allow="pedestrian bicycle"/>
    <edge id="-1064378892" from="1428043547" to="9775339975" priority="1" type="highway.service" numLanes="1" speed="5.56" shape="4545.77,2745.20 4574.93,2706.65 4587.22,2700.51 4594.19,2693.99" allow="pedestrian delivery bicycle"/>
    <edge id="-1064940944#0" from="1607497867" to="1607504919" priority="1" type="highway.path" numLanes="1" speed="5.56" width="2.00" allow="pedestrian bicycle"/>
    <edge id="-1064940944#1" from="9780107296" to="1607497867" priority="1" type="highway.path" numLanes="1" speed="5.56" shape="3290.11,2298.77 3147.74,2472.15 3120.69,2475.79 2910.45,2359.79" width="2.00" allow="pedestrian bicycle"/>
    <edge id="-1064940945" from="9780107301" to="1607497867" priority="1" type="highway.path" numLanes="1" speed="5.56" shape="2620.73,1950.55 2592.80,2216.38 2617.92,2236.42 2627.69,2280.21 2659.11,2287.32 2673.77,2305.52 2881.43,2339.39 2910.45,2359.79" width="2.00" allow="pedestrian bicycle"/>
    <edge id="-1064945896" from="9780129479" to="9780129475" priority="1" type="highway.path" numLanes="1" speed="5.56" shape="3992.92,4979.37 3994.43,4950.54 3968.37,4878.16 3973.85,4839.54 3988.20,4801.90" width="2.00" allow="pedestrian bicycle"/>
    <edge id="-1064945897" from="9780129483" to="8645332568" priority="1" type="highway.path" numLanes="1" speed="5.56" shape="3986.90,4990.28 3972.84,4974.86 3957.55,4961.87 3936.91,4949.21 3918.39,4939.17" width="2.00" allow="pedestrian bicycle"/>
    <edge id="-1064945898#0" from="9780129506" to="8694940619" priority="1" type="highway.path" numLanes="1" speed="5.56" width="2.00" allow="pedestrian bicycle"/>
    <edge id="-1064945898#1" from="9780129491" to="9780129506" priority="1" type="highway.path" numLanes="1" speed="5.56" shape="4097.52,4461.44 4081.30,4464.07 4077.39,4475.28 4073.25,4489.22 4054.23,4513.66 4045.81,4528.28 4019.63,4549.50 4007.08,4586.27" width="2.00" allow="pedestrian bicycle"/>
    <edge id="-1064945899" from="9780129498" to="9780129492" priority="1" type="highway.path" numLanes="1" speed="5.56" shape="4158.86,4609.30 4151.74,4591.78 4144.70,4565.05 4150.03,4527.78 4142.55,4515.36 4138.18,4493.52 4124.68,4465.11" width="2.00" allow="pedestrian bicycle"/>
    <edge id="-1064945900#0" from="9780129504" to="8694940645" priority="1" type="highway.path" numLanes="1" speed="5.56" shape="4058.43,4613.35 4070.60,4612.69 4096.82,4614.72 4109.88,4627.70 4126.42,4631.56 4139.09,4628.82 4155.83,4617.79" width="2.00" allow="pedestrian bicycle"/>
    <edge id="-1064945900#1" from="9780129506" to="9780129504" priority="1" type="highway.path" numLanes="1" speed="5.56" shape="4007.08,4586.27 4027.68,4596.35 4058.43,4613.35" width="2.00" allow="pedestrian bicycle"/>
    <edge id="-1064945901" from="8694940622" to="9780129504" priority="1" type="highway.path" numLanes="1" speed="5.56" shape="4006.38,4632.04 4005.56,4618.96 4024.56,4609.21 4044.62,4616.32 4058.43,4613.35" width="2.00" allow="pedestrian bicycle"/>
    <edge id="-1064945902#0" from="9780129514" to="2852470444" priority="1" type="highway.path" numLanes="1" speed="5.56" shape="2075.35,4163.23 2110.23,4163.60 2129.25,4162.45 2158.93,4181.81 2203.58,4240.61 2229.50,4245.23 2286.76,4320.32" width="2.00" allow="pedestrian bicycle"/>
    <edge id="-1064945902#1" from="9780156128" to="9780129514" priority="1" type="highway.path" numLanes="1" speed="5.56" shape="1894.98,4236.25 1907.56,4215.12 1922.27,4196.61 1944.93,4183.86 1960.72,4170.61 1982.35,4162.62 1999.76,4157.79 1998.57,4127.76 2009.60,4115.59 2015.38,4108.19 2035.46,4107.56 2041.85,4118.07 2043.51,4134.41 2059.98,4152.76 2075.35,4163.23" width="2.00" allow="pedestrian bicycle"/>
    <edge id="-1064945902#2" from="9780129514" to="9780156128" priority="1" type="highway.path" numLanes="1" speed="5.56" shape="2075.35,4163.23 2076.45,4171.66 2072.26,4180.63 2061.21,4191.22 2048.57,4199.18 2032.27,4217.70 2000.66,4235.75 1986.43,4245.84 1972.72,4250.65 1956.86,4249.13 1946.82,4249.71 1934.73,4262.94 1909.35,4259.37 1893.99,4249.96 1894.98,4236.25" width="2.00" allow="pedestrian bicycle"/>
    <edge id="-1067675887" from="9802233430" to="9802233426" priority="1" type="highway.path" numLanes="1" speed="5.56" shape="3992.61,4714.05 3985.60,4710.48 3948.73,4681.57 3946.86,4670.97 3943.09,4664.12" width="2.00" allow="pedestrian bicycle"/>
    <edge id="-1067675888#0" from="1999468192" to="1999468127" priority="1" type="highway.path" numLanes="1" speed="5.56" width="2.00" allow="pedestrian bicycle"/>
    <edge id="-1067675888#1" from="81123164" to="1999468192" priority="1" type="highway.path" numLanes="1" speed="5.56" shape="6740.61,4584.95 6669.52,4601.41 6383.72,4666.69" width="2.00" allow="pedestrian bicycle"/>
    <edge id="-1073899505#0" from="9850712174" to="9850712170" priority="1" type="highway.path" numLanes="1" speed="5.56" shape="5425.46,4511.36 5462.88,4528.73 5467.14,4521.60 5494.27,4523.39 5556.84,4538.36" width="2.00" allow="pedestrian bicycle"/>
    <edge id="-1073899505#1" from="9850712175" to="9850712174" priority="1" type="highway.path" numLanes="1" speed="5.56" shape="5402.19,4475.31 5407.57,4479.06 5421.77,4500.14 5425.46,4511.36" width="2.00" allow="pedestrian bicycle"/>
    <edge id="-1077416247" from="9878748276" to="459802345" priority="3" type="highway.residential" numLanes="1" speed="13.89" disallow="tram rail_urban rail rail_electric rail_fast ship"/>
    <edge id="-1098792982#0" from="459471126" to="459471020" priority="1" type="highway.cycleway" numLanes="1" speed="5.56" shape="4656.86,3639.79 4608.91,3593.36 4605.40,3588.57 4602.62,3580.94 4597.05,3573.29" width="2.00" allow="bicycle"/>
    <edge id="-1098792982#1" from="cluster_2287986743_4035716992_459469624_4755398137_#2more" to="459471126" priority="1" type="highway.cycleway" numLanes="1" speed="5.56" shape="4678.85,3655.57 4672.05,3652.95 4656.86,3639.79" width="2.00" allow="bicycle"/>
    <edge id="-1098792982#2" from="cluster_1724755344_4755398134_4755398135" to="cluster_2287986743_4035716992_459469624_4755398137_#2more" priority="1" type="highway.cycleway" numLanes="1" speed="5.56" shape="4699.05,3676.34 4697.31,3672.47 4696.11,3667.43 4692.23,3663.90 4686.09,3658.28 4683.28,3657.06 4678.85,3655.57" width="2.00" allow="bicycle"/>
    <edge id="-1099950359" from="9850712174" to="9561277132" priority="1" type="highway.path" numLanes="1" speed="5.56" shape="5425.46,4511.36 5427.19,4515.47 5449.24,4533.62 5464.02,4541.21 5471.01,4543.57 5475.76,4542.72 5481.89,4545.73 5487.99,4549.80 5496.80,4549.78 5501.34,4552.34 5515.22,4568.14 5523.22,4575.26 5535.34,4581.17 5537.67,4583.38 5541.70,4583.95 5543.51,4583.15 5554.43,4590.26 5559.39,4592.30" width="2.00" allow="pedestrian bicycle"/>
    <edge id="-1104340080" from="1390128864" to="1390128860" priority="3" type="highway.residential" numLanes="1" speed="8.33" shape="5412.96,3334.05 5419.77,3332.58 5430.44,3332.75" disallow="tram rail_urban rail rail_electric rail_fast ship"/>
    <edge id="-1104340081" from="1390128860" to="1390128862" priority="1" type="highway.path" numLanes="1" speed="8.33" width="2.00" allow="pedestrian bicycle"/>
    <edge id="-1112482534#0" from="cluster_10178168579_10221819242" to="5971588318" priority="1" type="highway.service" numLanes="1" speed="5.56" shape="2918.84,5478.86 2939.42,5485.92" allow="pedestrian delivery bicycle"/>
    <edge id="-1112482534#2" from="cluster_10178168587_10221819245" to="cluster_10178168579_10221819242" priority="1" type="highway.service" numLanes="1" speed="5.56" shape="2923.32,5465.91 2919.47,5477.03" allow="pedestrian delivery bicycle"/>
    <edge id="-1112482534#4" from="10221838035" to="cluster_10178168587_10221819245" priority="1" type="highway.service" numLanes="1" speed="5.56" shape="2926.89,5455.49 2924.00,5463.94" allow="pedestrian delivery bicycle"/>
    <edge id="-1112482534#5" from="10178168583" to="10221838035" priority="1" type="highway.service" numLanes="1" speed="5.56" shape="2949.21,5452.51 2936.51,5448.26 2935.20,5447.98 2933.95,5447.97 2932.71,5448.18 2931.54,5448.54 2930.49,5449.02 2929.55,5449.63 2928.82,5450.47 2928.30,5451.39 2926.89,5455.49" allow="pedestrian delivery bicycle"/>
    <edge id="-1112482535#0" from="10178168586" to="5971588297" priority="1" type="highway.service" numLanes="1" speed="5.56" allow="pedestrian delivery bicycle"/>
    <edge id="-1112482535#1" from="cluster_10178168579_10221819242" to="10178168586" priority="1" type="highway.service" numLanes="1" speed="5.56" shape="2918.84,5478.86 2915.09,5489.77 2922.63,5492.41" allow="pedestrian delivery bicycle"/>
    <edge id="-1112482536#0" from="5969841067" to="5967614058" priority="1" type="highway.service" numLanes="1" speed="5.56" allow="pedestrian delivery bicycle"/>
    <edge id="-1112482536#1" from="10178168586" to="5969841067" priority="1" type="highway.service" numLanes="1" speed="5.56" allow="pedestrian delivery bicycle"/>
    <edge id="-1112482537" from="cluster_10178168587_10221819245" to="5971587973" priority="1" type="highway.service" numLanes="1" speed="5.56" shape="2924.00,5463.94 2944.53,5470.92" allow="pedestrian delivery bicycle"/>
    <edge id="-1117632689" from="cluster_5126868696_5126868714_5967613994_5967613995_#3more" to="5967614058" priority="1" type="highway.service" numLanes="1" speed="5.56" shape="2958.15,5529.44 2957.32,5529.28 2956.26,5528.96 2954.90,5528.53 2916.92,5515.74 2914.93,5515.07" allow="pedestrian delivery bicycle"/>
    <edge id="-1120129118#2" from="cluster_10221819237_10244734215_10245378331" to="cluster_10221838342_10244734216_10245378330" priority="1" type="highway.service" numLanes="1" speed="5.56" shape="3075.12,5511.49 3090.62,5465.63 3065.30,5460.27" allow="pedestrian delivery bicycle"/>
    <edge id="-1120129118#5" from="cluster_10221838342_10244734216_10245378330" to="cluster_10221819237_10244734215_10245378331" priority="1" type="highway.service" numLanes="1" speed="5.56" shape="3063.25,5467.11 3063.84,5467.32 3064.33,5467.55 3064.75,5467.88 3065.13,5468.28 3065.42,5468.71 3065.63,5469.15 3065.75,5469.60 3065.83,5470.04 3065.79,5470.48 3065.73,5470.92 3065.61,5471.46 3065.44,5471.95 3065.22,5472.31 3064.95,5472.64 3064.53,5473.01 3064.01,5473.27 3063.46,5473.46 3062.93,5473.54 3062.34,5473.60 3061.77,5473.59 3061.06,5473.54 3060.42,5473.35 3029.39,5462.89 3028.24,5466.47 3034.73,5468.69 3032.72,5474.48 3064.42,5485.49 3065.54,5486.08 3066.54,5486.79 3067.33,5487.73 3067.98,5488.89 3068.51,5490.29 3068.88,5491.74 3069.16,5493.31 3069.33,5494.88 3069.43,5496.06 3069.49,5497.34 3069.38,5498.79 3069.12,5500.38 3068.49,5502.55 3067.27,5506.18 3066.43,5508.39" allow="pedestrian delivery bicycle"/>
    <edge id="-1120129119#1" from="10221838306" to="cluster_10221838084_10245378329_5971588319" priority="1" type="highway.service" numLanes="1" speed="5.56" shape="2959.15,5441.68 2953.14,5441.28" allow="pedestrian delivery bicycle"/>
    <edge id="-1120129119#2" from="10221838305" to="10221838306" priority="1" type="highway.service" numLanes="1" speed="5.56" shape="2988.33,5447.70 2988.63,5447.82 2988.88,5448.04 2989.00,5448.31 2989.02,5448.62 2988.88,5448.95 2988.66,5449.18 2988.40,5449.36 2988.15,5449.46 2987.75,5449.56 2987.00,5449.63 2986.25,5449.64 2984.48,5449.55 2982.15,5449.32 2979.96,5449.00 2977.77,5448.58 2975.57,5448.15 2973.04,5447.59 2970.82,5447.03 2968.30,5446.21 2965.10,5445.00 2962.11,5443.47 2959.15,5441.68" allow="pedestrian delivery bicycle"/>
    <edge id="-1120129119#3" from="10221838229" to="10221838305" priority="1" type="highway.service" numLanes="1" speed="5.56" allow="pedestrian delivery bicycle"/>
    <edge id="-1120129119#4" from="cluster_10221838084_10245378329_5971588319" to="10221838229" priority="1" type="highway.service" numLanes="1" speed="5.56" shape="2949.26,5441.02 2949.46,5441.20 2949.47,5441.75 2948.75,5443.53 2953.94,5447.55 2954.15,5447.23 2954.59,5447.14 2954.98,5447.14 2955.55,5447.28 2955.86,5447.38 2956.26,5447.57 2957.67,5448.16 2957.89,5447.51 2972.22,5452.30 2970.83,5456.46 2991.84,5463.47 2994.92,5464.48 2997.44,5457.19 2997.98,5456.15 2998.52,5455.31 2999.20,5454.52 3000.09,5453.83 3001.12,5453.31 3002.08,5452.86 3003.16,5452.47 3004.14,5452.29 3005.12,5452.16 3006.56,5452.11 3008.06,5452.18 3010.28,5452.34 3011.75,5452.53" allow="pedestrian delivery bicycle"/>
    <edge id="-1120190091#0" from="10245378327" to="cluster_10221838043_5970120653" priority="1" type="highway.service" numLanes="1" speed="5.56" shape="2830.00,5637.11 2831.04,5637.45 2834.66,5638.67 2849.00,5596.34 2852.86,5597.58 2858.31,5581.26 2860.16,5575.58 2857.99,5574.86 2856.65,5571.23 2858.15,5567.20 2858.41,5566.92 2858.71,5566.77 2858.98,5566.74 2859.27,5566.75 2859.47,5566.81 2860.74,5567.25 2865.48,5568.89 2869.21,5570.13 2872.56,5571.25 2873.63,5568.17" allow="pedestrian delivery bicycle"/>
    <edge id="-1120190091#1" from="cluster_10221838342_10244734216_10245378330" to="10245378327" priority="1" type="highway.service" numLanes="1" speed="5.56" shape="3065.30,5460.27 3033.48,5453.53 2967.66,5439.78 2913.42,5428.93 2910.61,5428.50 2908.20,5428.31 2906.08,5428.52 2904.06,5428.87 2902.38,5429.42 2900.76,5430.21 2899.20,5431.25 2897.82,5432.29 2896.84,5433.33 2895.86,5434.55 2894.93,5435.88 2893.86,5438.54 2890.85,5447.74 2827.49,5636.27 2830.00,5637.11" allow="pedestrian delivery bicycle"/>
    <edge id="-1120190091#10" from="cluster_10221838043_5970120653" to="cluster_10221838084_10245378329_5971588319" priority="1" type="highway.service" numLanes="1" speed="5.56" shape="2874.35,5566.02 2860.81,5561.44 2881.73,5498.67 2887.69,5480.56 2901.37,5439.19 2900.88,5439.00 2900.66,5438.73 2900.60,5438.43 2900.78,5438.02 2901.22,5437.70 2906.75,5435.46 2909.65,5434.67 2911.58,5434.32 2913.76,5434.33 2915.95,5434.49 2918.40,5434.84 2921.01,5435.30 2949.26,5441.02" allow="pedestrian delivery bicycle"/>
    <edge id="-1120190091#4" from="cluster_5126868661_5970084108" to="cluster_10221838342_10244734216_10245378330" priority="1" type="highway.service" numLanes="1" speed="5.56" shape="3017.74,5457.96 3019.87,5458.64 3020.20,5457.67 3020.60,5456.98 3021.28,5456.34 3022.07,5456.04 3023.49,5455.79 3025.96,5455.98 3029.65,5456.55 3063.25,5467.11" allow="pedestrian delivery bicycle"/>
    <edge id="-1120190091#5" from="10221838229" to="cluster_5126868661_5970084108" priority="1" type="highway.service" numLanes="1" speed="5.56" shape="3011.75,5452.53 3013.33,5452.87 3014.89,5453.27 3015.90,5453.71 3016.40,5454.22 3016.64,5454.91 3016.59,5455.55 3016.35,5456.27 3016.06,5456.80 3015.76,5457.33 3017.74,5457.96" allow="pedestrian delivery bicycle"/>
    <edge id="-1120190091#6" from="10221838305" to="10221838229" priority="1" type="highway.service" numLanes="1" speed="5.56" allow="pedestrian delivery bicycle"/>
    <edge id="-1120190091#7" from="10221838306" to="10221838305" priority="1" type="highway.service" numLanes="1" speed="5.56" allow="pedestrian delivery bicycle"/>
    <edge id="-1120190091#8" from="cluster_10221838084_10245378329_5971588319" to="10221838306" priority="1" type="highway.service" numLanes="1" speed="5.56" shape="2953.14,5441.28 2959.15,5441.68" allow="pedestrian delivery bicycle"/>
    <edge id="-1120190092#0" from="cluster_10221819237_10244734215_10245378331" to="cluster_10218816186_5970225890_5971587908" priority="1" type="highway.service" numLanes="1" speed="5.56" shape="3066.43,5508.39 3062.40,5519.02 3061.98,5519.94 3061.47,5520.79 3060.56,5521.92" allow="pedestrian delivery bicycle"/>
    <edge id="-1120190092#3" from="cluster_10218816186_5970225890_5971587908" to="cluster_10221819237_10244734215_10245378331" priority="1" type="highway.service" numLanes="1" speed="5.56" shape="3065.29,5523.64 3066.42,5520.47 3068.42,5517.89 3071.13,5515.24 3075.12,5511.49" allow="pedestrian delivery bicycle"/>
    <edge id="-1144042703" from="10649450147" to="cluster_10649450146_302719043" priority="1" type="highway.path" numLanes="1" speed="5.56" shape="2450.88,2511.26 2414.77,2568.99" width="2.00" allow="pedestrian bicycle"/>
    <edge id="-1195870657" from="2865318803" to="316050677" priority="1" type="highway.path" numLanes="1" speed="5.56" shape="2723.65,4595.34 2728.14,4595.23 2739.64,4594.53 2749.18,4595.33 2761.25,4596.67 2765.95,4599.38 2779.46,4601.52 2798.10,4609.69 2810.63,4613.59 2820.34,4607.59 2827.14,4607.94 2843.38,4611.92 2850.70,4605.43 2862.29,4601.16 2870.50,4599.69 2879.26,4598.25 2883.03,4596.88 2892.56,4594.04" width="2.00" allow="pedestrian bicycle"/>
    <edge id="-1195870658" from="299278672" to="275729182" priority="1" type="highway.track" numLanes="1" speed="5.56" shape="2647.56,4760.53 2581.93,4770.95 2569.43,4764.06 2558.95,4756.70 2540.86,4747.74 2515.75,4746.94 2496.88,4749.41 2488.08,4750.08 2467.92,4750.27 2448.37,4743.41 2430.95,4736.39 2416.42,4731.50 2404.84,4725.80 2396.74,4722.12" allow="pedestrian motorcycle moped bicycle"/>
    <edge id="-1195870659" from="299278672" to="2865318803" priority="1" type="highway.path" numLanes="1" speed="5.56" shape="2647.56,4760.53 2651.00,4751.39 2652.37,4747.29 2654.01,4745.37 2665.82,4738.86 2667.58,4734.76 2671.59,4727.95 2676.24,4719.29 2681.71,4708.55 2686.90,4698.36 2690.96,4685.76 2693.64,4677.63 2698.44,4665.21 2702.04,4655.59 2705.09,4647.09 2711.57,4633.26 2714.24,4624.30 2716.17,4615.52 2718.46,4604.69 2721.98,4597.03 2723.65,4595.34" width="2.00" allow="pedestrian bicycle"/>
    <edge id="-1210613950" from="11216174337" to="459460259" priority="1" type="highway.service" numLanes="1" speed="5.56" shape="2768.08,3608.20 2772.15,3608.29 2783.50,3605.56 2797.21,3598.35 2811.00,3587.96 2815.66,3584.96 2821.39,3583.65" allow="pedestrian delivery bicycle"/>
    <edge id="-1217308488" from="cluster_11279294081_5274053882" to="1428072568" priority="1" type="highway.service" numLanes="1" speed="5.56" shape="6101.57,2871.65 6117.49,2867.36" allow="pedestrian delivery bicycle"/>
    <edge id="-123245584#0" from="1375036554" to="cluster_1375036558_1375036561" priority="3" type="highway.residential" numLanes="1" speed="8.33" shape="5210.75,2989.97 5204.87,3002.47 5202.74,3006.57" disallow="tram rail_urban rail rail_electric rail_fast ship"/>
    <edge id="-123245584#1" from="1375036532" to="1375036554" priority="3" type="highway.residential" numLanes="1" speed="8.33" shape="5244.92,2912.04 5239.76,2916.10 5232.68,2929.68 5214.24,2967.88 5210.75,2989.97" disallow="tram rail_urban rail rail_electric rail_fast ship"/>
    <edge id="-123245584#10" from="1375036234" to="1375036332" priority="3" type="highway.residential" numLanes="1" speed="8.33" disallow="tram rail_urban rail rail_electric rail_fast ship"/>
    <edge id="-123245584#2" from="cluster_1375036513_2285908066" to="1375036532" priority="3" type="highway.residential" numLanes="1" speed="8.33" shape="5270.79,2892.24 5244.92,2912.04" disallow="tram rail_urban rail rail_electric rail_fast ship"/>
    <edge id="-123245584#4" from="cluster_1375036471_1375036477_2285908068" to="cluster_1375036513_2285908066" priority="3" type="highway.residential" numLanes="1" speed="8.33" shape="5302.76,2831.01 5279.41,2881.23 5276.73,2886.92" disallow="tram rail_urban rail rail_electric rail_fast ship"/>
    <edge id="-123245584#6" from="1375036434" to="cluster_1375036471_1375036477_2285908068" priority="3" type="highway.residential" numLanes="1" speed="8.33" shape="5317.16,2801.73 5305.24,2825.97" disallow="tram rail_urban rail rail_electric rail_fast ship"/>
    <edge id="-123245584#7" from="1375036405" to="1375036434" priority="3" type="highway.residential" numLanes="1" speed="8.33" shape="5328.12,2778.66 5324.73,2785.99 5323.69,2788.07 5317.16,2801.73" disallow="tram rail_urban rail rail_electric rail_fast ship"/>