<?xml version="1.0" encoding="UTF-8"?>

<!-- generated on 2025-04-07 23:59:27 by Eclipse SUMO netconvert Version 1.19.0
<configuration xmlns:xsi="http://www.w3.org/2001/XMLSchema-instance" xsi:noNamespaceSchemaLocation="http://sumo.dlr.de/xsd/netconvertConfiguration.xsd">

    <input>
        <sumo-net-file value="parmain/parmain.net.xml"/>
    </input>

    <output>
        <plain-output-prefix value="parmain/parmain"/>
    </output>

    <processing>
        <geometry.min-radius.fix.railways value="false"/>
        <geometry.max-grade.fix value="false"/>
        <offset.disable-normalization value="true"/>
        <lefthand value="0"/>
    </processing>

    <tls_building>
        <tls.ignore-internal-junction-jam value="1"/>
    </tls_building>

    <junctions>
        <no-turnarounds value="true"/>
        <junctions.corner-detail value="5"/>
        <junctions.limit-turn-speed value="5.50"/>
        <rectangular-lane-cut value="0"/>
    </junctions>

    <pedestrian>
        <walkingareas value="0"/>
    </pedestrian>

</configuration>
-->

<nodes version="1.16" xmlns:xsi="http://www.w3.org/2001/XMLSchema-instance" xsi:noNamespaceSchemaLocation="http://sumo.dlr.de/xsd/nodes_file.xsd">
    <location netOffset="-439702.67,-5437293.63" convBoundary="0.00,0.00,7125.40,8770.16" origBoundary="1.932246,49.036644,2.546646,49.164546" projParameter="+proj=utm +zone=31 +ellps=WGS84 +datum=WGS84 +units=m +no_defs"/>

    <node id="10013267473" x="2335.17" y="2184.32" type="priority"/>
    <node id="10013267477" x="2323.91" y="2166.58" type="priority"/>
    <node id="10013267478" x="2374.37" y="2530.32" type="right_before_left"/>
    <node id="10013267481" x="2404.10" y="2532.06" type="priority"/>
    <node id="10013267482" x="2448.37" y="2389.24" type="priority"/>
    <node id="10013267484" x="2457.81" y="2406.90" type="priority"/>
    <node id="10013267488" x="2453.39" y="2424.82" type="priority"/>
    <node id="10013267489" x="2439.05" y="2242.26" type="right_before_left"/>
    <node id="10013267490" x="2436.26" y="2208.69" type="priority"/>
    <node id="10013267491" x="2437.50" y="2277.35" type="right_before_left"/>
    <node id="10013267496" x="2441.90" y="2313.17" type="priority"/>
    <node id="10013267497" x="2307.33" y="2322.13" type="right_before_left"/>
    <node id="10013267501" x="2312.89" y="2300.37" type="priority"/>
    <node id="10013267505" x="2358.46" y="2346.09" type="right_before_left"/>
    <node id="10013267506" x="2305.62" y="2322.79" type="right_before_left"/>
    <node id="10013267510" x="2317.92" y="2340.97" type="priority"/>
    <node id="10013267511" x="2323.71" y="2379.90" type="priority"/>
    <node id="10013267514" x="2329.31" y="2414.21" type="priority"/>
    <node id="10013267515" x="2362.39" y="2529.50" type="priority"/>
    <node id="10013313318" x="2363.11" y="2501.80" type="priority"/>
    <node id="10013313319" x="2328.05" y="2478.05" type="priority"/>
    <node id="10013313322" x="2361.93" y="2472.71" type="priority"/>
    <node id="10013336762" x="3487.81" y="4046.91" type="priority"/>
    <node id="10013337772" x="3450.40" y="3997.42" type="dead_end"/>
    <node id="10013337773" x="3495.08" y="4041.41" type="priority"/>
    <node id="10013337779" x="3467.14" y="4039.33" type="priority"/>
    <node id="10013337780" x="3472.59" y="4026.63" type="dead_end"/>
    <node id="10013337783" x="3446.29" y="4054.97" type="dead_end"/>
    <node id="10013337799" x="3206.99" y="4075.97" type="priority"/>
    <node id="10013337801" x="3489.08" y="4080.45" type="priority"/>
    <node id="10013337802" x="3505.61" y="4102.70" type="priority"/>
    <node id="10013337803" x="3517.51" y="4093.74" type="priority"/>
    <node id="10013337804" x="3500.57" y="4071.50" type="priority"/>
    <node id="10013337809" x="3506.81" y="4066.65" type="priority"/>
    <node id="10055650120" x="2602.36" y="3179.96" type="priority"/>
    <node id="10055650122" x="2623.91" y="3175.17" type="priority"/>
    <node id="10055650134" x="2642.12" y="3225.94" type="dead_end"/>
    <node id="10055650143" x="2637.01" y="3227.63" type="dead_end"/>
    <node id="10055785046" x="2638.07" y="3274.19" type="priority"/>
    <node id="10055785049" x="2638.74" y="3264.38" type="priority"/>
    <node id="10055785050" x="2643.53" y="3263.56" type="priority"/>
    <node id="10055785051" x="2636.07" y="3264.84" type="right_before_left"/>
    <node id="10055785053" x="2640.55" y="3303.48" type="priority"/>
    <node id="10055785057" x="2630.29" y="3226.57" type="dead_end"/>
    <node id="10055785063" x="2625.00" y="3178.81" type="dead_end"/>
    <node id="10055785065" x="2604.73" y="3194.23" type="priority"/>
    <node id="10055785078" x="2570.57" y="3189.39" type="dead_end"/>
    <node id="10055785093" x="2590.05" y="3118.52" type="priority"/>
    <node id="10055785095" x="2589.73" y="3135.53" type="priority"/>
    <node id="10055785097" x="2611.27" y="3099.15" type="rail_crossing"/>
    <node id="10055785098" x="2615.05" y="3097.82" type="rail_crossing"/>
    <node id="10055785099" x="2619.36" y="3109.80" type="rail_crossing"/>
    <node id="10055785100" x="2615.70" y="3111.64" type="rail_crossing"/>
    <node id="10055785102" x="2609.39" y="3121.78" type="dead_end"/>
    <node id="10055785105" x="2627.86" y="3105.64" type="dead_end"/>
    <node id="10060501718" x="2576.56" y="5311.88" type="priority"/>
    <node id="10060501724" x="2641.90" y="5487.71" type="priority"/>
    <node id="10060501730" x="2821.64" y="5580.38" type="right_before_left"/>
    <node id="10060501732" x="2758.32" y="5522.12" type="priority"/>
    <node id="10060941962" x="4874.98" y="6098.53" type="priority"/>
    <node id="10060941970" x="5082.77" y="6114.57" type="priority"/>
    <node id="10060941974" x="5093.83" y="6180.74" type="priority"/>
    <node id="10060941982" x="5048.30" y="5980.77" type="priority"/>
    <node id="10060941984" x="5029.07" y="5975.06" type="right_before_left"/>
    <node id="10060942001" x="4823.22" y="6137.58" type="priority"/>
    <node id="10060942002" x="4958.13" y="6190.90" type="right_before_left"/>
    <node id="10060942005" x="5008.75" y="6197.96" type="right_before_left"/>
    <node id="10064195647" x="4978.18" y="5531.79" type="dead_end"/>
    <node id="10064195656" x="4960.63" y="5720.31" type="priority"/>
    <node id="10064195657" x="4960.01" y="5704.64" type="priority"/>
    <node id="10064195678" x="4965.28" y="5512.55" type="rail_crossing"/>
    <node id="10064195679" x="4965.52" y="5508.97" type="rail_crossing"/>
    <node id="10064195686" x="4983.34" y="5529.13" type="dead_end"/>
    <node id="10064195698" x="4963.61" y="5500.12" type="priority"/>
    <node id="10064195699" x="4966.99" y="5500.43" type="dead_end"/>
    <node id="10064195700" x="4974.08" y="5505.30" type="dead_end"/>
    <node id="10064195707" x="5002.15" y="5542.61" type="dead_end"/>
    <node id="10064195708" x="4961.55" y="5524.08" type="dead_end"/>
    <node id="10064195709" x="4971.48" y="5528.75" type="dead_end"/>
    <node id="10064195710" x="4979.91" y="5528.30" type="dead_end"/>
    <node id="10064195713" x="4979.54" y="5528.95" type="dead_end"/>
    <node id="10067638259" x="2806.22" y="2783.77" type="priority"/>
    <node id="10072560613" x="2080.78" y="543.92" type="priority"/>
    <node id="10072577717" x="2087.07" y="690.22" type="priority"/>
    <node id="10072577721" x="2094.56" y="682.34" type="dead_end"/>
    <node id="10072577724" x="2095.19" y="697.98" type="priority"/>
    <node id="10072577730" x="2054.63" y="736.10" type="priority"/>
    <node id="10072577731" x="2080.37" y="711.44" type="priority"/>
    <node id="10072577734" x="2071.01" y="728.87" type="rail_crossing"/>
    <node id="10072577735" x="2068.06" y="730.93" type="rail_crossing"/>
    <node id="10072577745" x="2060.58" y="733.91" type="dead_end"/>
    <node id="10072577746" x="2045.05" y="690.50" type="dead_end"/>
    <node id="10072577749" x="2038.21" y="693.28" type="right_before_left"/>
    <node id="10072577764" x="2069.86" y="700.50" type="dead_end"/>
    <node id="10072577765" x="2077.10" y="698.07" type="dead_end"/>
    <node id="10072577790" x="2068.50" y="671.27" type="dead_end"/>
    <node id="10072577791" x="2067.68" y="674.91" type="dead_end"/>
    <node id="10072577793" x="2073.85" y="687.91" type="dead_end"/>
    <node id="10072577795" x="2069.50" y="674.34" type="dead_end"/>
    <node id="10072577797" x="2068.91" y="674.51" type="dead_end"/>
    <node id="10072894458" x="2052.98" y="653.06" type="dead_end"/>
    <node id="10077641815" x="2069.59" y="680.69" type="dead_end"/>
    <node id="10129746198" x="876.07" y="2330.65" type="priority"/>
    <node id="10129746205" x="817.25" y="2326.16" type="priority"/>
    <node id="10129746211" x="855.75" y="2320.56" type="right_before_left"/>
    <node id="10175418671" x="3214.09" y="4055.32" type="dead_end"/>
    <node id="10175418675" x="3184.23" y="4080.45" type="dead_end"/>
    <node id="10175418676" x="3196.16" y="4020.56" type="priority"/>
    <node id="10175418679" x="3206.39" y="4046.67" type="dead_end"/>
    <node id="10175418680" x="3176.36" y="4071.72" type="dead_end"/>
    <node id="10175418681" x="3156.80" y="4088.96" type="priority"/>
    <node id="10175418683" x="3480.22" y="4087.34" type="priority"/>
    <node id="10175418685" x="3492.89" y="4107.37" type="priority"/>
    <node id="10213771716" x="2636.78" y="3226.21" type="dead_end"/>
    <node id="10779872758" x="1221.79" y="1250.91" type="dead_end"/>
    <node id="10779872760" x="1284.04" y="1294.63" type="priority"/>
    <node id="10781441865" x="2862.96" y="3042.12" type="dead_end"/>
    <node id="10785136433" x="3856.42" y="5552.38" type="priority"/>
    <node id="10785136435" x="3907.49" y="5549.74" type="priority"/>
    <node id="10862499188" x="4971.53" y="4616.66" type="priority"/>
    <node id="11149539657" x="1254.25" y="6186.34" type="right_before_left"/>
    <node id="11263989627" x="4074.22" y="3665.90" type="priority"/>
    <node id="11263989628" x="4091.39" y="3730.64" type="priority"/>
    <node id="11263989630" x="4067.18" y="3736.65" type="priority"/>
    <node id="11263989631" x="4050.42" y="3668.84" type="priority"/>
    <node id="11284914435" x="3589.49" y="3248.80" type="right_before_left"/>
    <node id="11284914436" x="3615.21" y="3228.43" type="priority"/>
    <node id="11284914442" x="3664.31" y="3301.22" type="priority"/>
    <node id="11364638651" x="2684.97" y="2390.01" type="priority"/>
    <node id="11364638652" x="2601.78" y="2398.47" type="priority"/>
    <node id="11364638653" x="2598.62" y="2346.73" type="priority"/>
    <node id="11364685470" x="2595.97" y="2302.25" type="priority"/>
    <node id="11364685471" x="3090.33" y="2093.79" type="priority"/>
    <node id="11364685473" x="3181.94" y="2086.55" type="priority"/>
    <node id="11364685474" x="3666.91" y="2595.26" type="priority"/>
    <node id="11364685476" x="3602.90" y="2513.05" type="priority"/>
    <node id="11364685477" x="4372.64" y="1952.70" type="priority"/>
    <node id="11364685484" x="4403.03" y="1884.53" type="priority"/>
    <node id="11364685485" x="4391.24" y="2176.09" type="priority"/>
    <node id="11364685496" x="4139.68" y="2248.88" type="priority"/>
    <node id="11364685497" x="4289.33" y="2651.18" type="priority"/>
    <node id="11364685511" x="3647.26" y="2859.04" type="priority"/>
    <node id="11364685513" x="3620.56" y="2793.34" type="priority"/>
    <node id="11364685516" x="3804.00" y="2838.21" type="priority"/>
    <node id="11364685517" x="3827.93" y="2829.28" type="priority"/>
    <node id="11364685524" x="3947.27" y="2846.31" type="priority"/>
    <node id="11364685526" x="3869.17" y="2875.20" type="right_before_left"/>
    <node id="11364685535" x="3801.69" y="2780.60" type="priority"/>
    <node id="11364685536" x="3785.55" y="2781.56" type="right_before_left"/>
    <node id="11364685538" x="3780.83" y="2770.33" type="priority"/>
    <node id="11364685541" x="3138.97" y="3835.54" type="dead_end"/>
    <node id="11364685552" x="3163.73" y="3592.47" type="priority"/>
    <node id="11390485940" x="4097.06" y="5462.72" type="priority"/>
    <node id="11390485941" x="4073.79" y="5491.69" type="priority"/>
    <node id="11390485942" x="4140.45" y="5457.79" type="priority"/>
    <node id="11390485943" x="4094.64" y="5509.73" type="priority"/>
    <node id="11390485944" x="4890.04" y="5826.96" type="priority"/>
    <node id="11390485946" x="4923.69" y="5779.98" type="priority"/>
    <node id="11390485947" x="5105.58" y="5995.22" type="priority"/>
    <node id="11390485950" x="5093.57" y="5927.41" type="priority"/>
    <node id="11396828736" x="2271.45" y="4698.86" type="priority"/>
    <node id="11396828739" x="2311.89" y="4607.13" type="priority"/>
    <node id="11632451703" x="4788.50" y="1375.39" type="priority"/>
    <node id="11688200154" x="3661.21" y="3490.82" type="priority"/>
    <node id="11688200155" x="3730.66" y="3504.95" type="priority"/>
    <node id="11688424008" x="3174.60" y="1826.13" type="priority"/>
    <node id="11688424011" x="3163.24" y="1836.11" type="priority"/>
    <node id="11688424012" x="3365.30" y="2104.41" type="priority"/>
    <node id="11688424020" x="3413.69" y="2111.56" type="priority"/>
    <node id="11688424022" x="2366.77" y="1432.56" type="priority"/>
    <node id="11688424023" x="2375.76" y="1461.92" type="priority"/>
    <node id="11701537568" x="4754.68" y="5911.71" type="right_before_left"/>
    <node id="11701846167" x="4727.82" y="5855.14" type="priority"/>
    <node id="11701852970" x="4765.34" y="5918.54" type="priority"/>
    <node id="11731473522" x="3173.78" y="4099.53" type="right_before_left"/>
    <node id="11731473523" x="3169.13" y="4093.25" type="priority"/>
    <node id="11737680163" x="2588.15" y="522.13" type="priority"/>
    <node id="11737680166" x="2557.24" y="418.58" type="priority"/>
    <node id="11737680226" x="3172.50" y="1512.78" type="priority"/>
    <node id="11737680229" x="3202.61" y="1514.28" type="right_before_left"/>
    <node id="11737680239" x="3309.13" y="1536.66" type="right_before_left"/>
    <node id="11753768506" x="5698.45" y="2481.55" type="right_before_left"/>
    <node id="11753768510" x="5617.90" y="2458.02" type="right_before_left"/>
    <node id="11753768511" x="5823.70" y="2548.42" type="priority"/>
    <node id="11753768530" x="5521.60" y="2549.37" type="right_before_left"/>
    <node id="11753768539" x="5552.95" y="2372.66" type="right_before_left"/>
    <node id="11755287395" x="3068.24" y="4937.71" type="right_before_left"/>
    <node id="11755287399" x="2238.99" y="3209.91" type="priority"/>
    <node id="11755287400" x="2232.22" y="3217.80" type="priority"/>
    <node id="11755287403" x="2205.89" y="3180.60" type="right_before_left"/>
    <node id="11755287429" x="2309.67" y="3113.77" type="priority"/>
    <node id="11755287432" x="2278.51" y="3431.91" type="priority"/>
    <node id="11755287433" x="2269.54" y="3388.67" type="priority"/>
    <node id="11755287434" x="2944.55" y="4999.64" type="priority"/>
    <node id="11755287439" x="3027.72" y="4895.76" type="priority"/>
    <node id="11755287442" x="3006.85" y="4912.37" type="right_before_left"/>
    <node id="11755287453" x="3149.14" y="5066.41" type="priority"/>
    <node id="11755287454" x="3138.73" y="5043.10" type="priority"/>
    <node id="11755290970" x="3180.60" y="4967.16" type="right_before_left"/>
    <node id="11755290973" x="3125.89" y="4874.05" type="priority"/>
    <node id="11755290974" x="3288.07" y="5094.15" type="priority"/>
    <node id="11755290975" x="3280.73" y="5102.61" type="right_before_left"/>
    <node id="11755290976" x="3260.20" y="5086.04" type="priority"/>
    <node id="11755290978" x="3271.42" y="5101.92" type="right_before_left"/>
    <node id="11755290979" x="3284.37" y="5190.48" type="priority"/>
    <node id="11755290982" x="3271.05" y="5132.08" type="right_before_left"/>
    <node id="11755290984" x="3280.58" y="5136.56" type="right_before_left"/>
    <node id="11755290998" x="3402.67" y="5068.37" type="priority"/>
    <node id="11961156310" x="2042.15" y="746.54" type="priority"/>
    <node id="11961156311" x="2063.80" y="811.76" type="priority"/>
    <node id="11961197112" x="2085.84" y="740.75" type="right_before_left"/>
    <node id="11961197115" x="2085.71" y="746.71" type="priority"/>
    <node id="12041450776" x="3242.98" y="1286.46" type="priority"/>
    <node id="12041450781" x="3135.49" y="1293.43" type="priority"/>
    <node id="12041450782" x="810.17" y="2034.12" type="priority"/>
    <node id="12041450787" x="810.49" y="3491.01" type="priority"/>
    <node id="12041450818" x="2054.74" y="2991.97" type="priority"/>
    <node id="12041450827" x="2030.48" y="2918.29" type="priority"/>
    <node id="12041450828" x="2171.71" y="3001.57" type="priority"/>
    <node id="12041450841" x="2130.42" y="2898.32" type="priority"/>
    <node id="12105194512" x="5503.06" y="2996.99" type="right_before_left"/>
    <node id="12105194516" x="5461.29" y="2888.47" type="right_before_left"/>
    <node id="12105194517" x="5475.85" y="2871.08" type="right_before_left"/>
    <node id="12105194518" x="5310.03" y="2447.67" type="priority"/>
    <node id="12105194528" x="5465.02" y="2432.77" type="right_before_left"/>
    <node id="12105194530" x="5369.91" y="2437.06" type="priority"/>
    <node id="12105194532" x="5353.96" y="2409.42" type="right_before_left"/>
    <node id="12105194540" x="5294.74" y="2360.32" type="priority"/>
    <node id="12105194543" x="5425.16" y="2427.26" type="priority"/>
    <node id="12105194549" x="4898.51" y="2520.76" type="priority"/>
    <node id="12105194551" x="4883.12" y="2497.83" type="priority"/>
    <node id="12105194557" x="5483.85" y="2111.63" type="priority"/>
    <node id="12105194568" x="5627.32" y="2081.42" type="right_before_left"/>
    <node id="12105194617" x="5177.89" y="2427.17" type="right_before_left"/>
    <node id="12105194628" x="5078.45" y="2385.75" type="right_before_left"/>
    <node id="12105194629" x="5077.79" y="2372.83" type="right_before_left"/>
    <node id="12105194640" x="4968.52" y="2382.21" type="right_before_left"/>
    <node id="12105194668" x="5080.24" y="2420.33" type="right_before_left"/>
    <node id="12105194669" x="4990.09" y="2504.48" type="priority"/>
    <node id="12105194676" x="4941.65" y="2388.74" type="right_before_left"/>
    <node id="12105194690" x="4881.50" y="2523.78" type="priority"/>
    <node id="12105194712" x="5038.51" y="2866.75" type="right_before_left"/>
    <node id="12105194717" x="4999.47" y="2926.39" type="right_before_left"/>
    <node id="12105194722" x="4884.33" y="3122.87" type="right_before_left"/>
    <node id="12105194724" x="4904.73" y="3161.93" type="right_before_left"/>
    <node id="12105194731" x="5117.65" y="3102.53" type="right_before_left"/>
    <node id="12105194734" x="4859.11" y="3183.64" type="right_before_left"/>
    <node id="12105194737" x="4824.48" y="3201.20" type="priority"/>
    <node id="12105194750" x="4665.19" y="3267.58" type="right_before_left"/>
    <node id="12105194752" x="4611.51" y="3254.52" type="priority"/>
    <node id="12105194757" x="4667.08" y="3289.25" type="priority"/>
    <node id="12105194758" x="4717.62" y="3263.33" type="right_before_left"/>
    <node id="12105194760" x="4756.86" y="3261.39" type="priority"/>
    <node id="12105194784" x="5112.07" y="3001.70" type="right_before_left"/>
    <node id="12105194787" x="5021.10" y="2746.17" type="right_before_left"/>
    <node id="12105194791" x="5095.18" y="2696.59" type="right_before_left"/>
    <node id="12105194792" x="4997.56" y="2503.15" type="priority"/>
    <node id="12105194812" x="4792.59" y="3089.22" type="priority"/>
    <node id="12113248395" x="5959.88" y="1770.73" type="right_before_left"/>
    <node id="12113248396" x="5764.33" y="1593.08" type="right_before_left"/>
    <node id="12113248398" x="5974.41" y="1783.91" type="right_before_left"/>
    <node id="12113248399" x="5694.35" y="1886.58" type="right_before_left"/>
    <node id="12147990754" x="2061.12" y="752.79" type="dead_end"/>
    <node id="12218966290" x="3910.75" y="4037.63" type="priority"/>
    <node id="12218973871" x="4320.23" y="3419.07" type="right_before_left"/>
    <node id="12218973872" x="4305.92" y="3419.21" type="priority"/>
    <node id="12219008723" x="4408.25" y="3393.86" type="priority"/>
    <node id="12219009520" x="4329.87" y="4167.51" type="dead_end"/>
    <node id="12219012806" x="4318.53" y="3600.00" type="priority"/>
    <node id="12219015692" x="3115.94" y="3500.94" type="priority"/>
    <node id="12219015693" x="3105.21" y="3504.11" type="right_before_left"/>
    <node id="12219030247" x="3705.82" y="3508.41" type="dead_end"/>
    <node id="12219030248" x="3682.52" y="3508.38" type="dead_end"/>
    <node id="12219035743" x="3045.54" y="3519.92" type="priority"/>
    <node id="12219035744" x="3102.11" y="3495.89" type="right_before_left"/>
    <node id="12219042276" x="3720.43" y="3435.77" type="priority"/>
    <node id="12219042278" x="3764.12" y="3437.53" type="dead_end"/>
    <node id="12219061798" x="5495.41" y="1952.44" type="right_before_left"/>
    <node id="12219065602" x="5463.39" y="1967.38" type="priority"/>
    <node id="12269118459" x="2717.74" y="4585.63" type="priority"/>
    <node id="12269401246" x="3914.32" y="1656.47" type="right_before_left"/>
    <node id="12269540090" x="4496.71" y="3648.92" type="right_before_left"/>
    <node id="12269540096" x="5129.96" y="3324.71" type="right_before_left"/>
    <node id="12269540097" x="5122.67" y="3192.94" type="right_before_left"/>
    <node id="12269548224" x="3341.81" y="1601.08" type="right_before_left"/>
    <node id="12269548229" x="3175.57" y="1697.21" type="priority"/>
    <node id="12269629574" x="3097.04" y="3273.34" type="priority"/>
    <node id="12269629589" x="3016.99" y="3246.20" type="right_before_left"/>
    <node id="12269629592" x="3035.19" y="3193.82" type="priority"/>
    <node id="12269649403" x="2964.21" y="3146.03" type="priority"/>
    <node id="12269649405" x="2975.65" y="3151.85" type="priority"/>
    <node id="12269649406" x="2996.47" y="3167.97" type="priority"/>
    <node id="12269649411" x="2968.55" y="3146.40" type="priority"/>
    <node id="12269649433" x="3036.58" y="3056.02" type="right_before_left"/>
    <node id="12269649435" x="3114.12" y="3010.86" type="priority"/>
    <node id="12269649440" x="3110.82" y="3078.06" type="right_before_left"/>
    <node id="12269649446" x="3118.40" y="3022.94" type="right_before_left"/>
    <node id="12269649447" x="3056.82" y="3148.40" type="priority"/>
    <node id="12269649455" x="3170.02" y="3037.82" type="right_before_left"/>
    <node id="12269649488" x="3151.96" y="3049.57" type="priority"/>
    <node id="12269649497" x="3174.53" y="3095.87" type="right_before_left"/>
    <node id="12271834324" x="4565.20" y="1764.98" type="right_before_left"/>
    <node id="12271834359" x="4507.52" y="2013.41" type="right_before_left"/>
    <node id="12271834362" x="4492.66" y="2031.67" type="right_before_left"/>
    <node id="12271834372" x="4359.11" y="2104.95" type="priority"/>
    <node id="12271834383" x="4368.95" y="2110.92" type="priority"/>
    <node id="12271834393" x="4589.95" y="1911.22" type="priority"/>
    <node id="12271834398" x="4589.87" y="1950.68" type="right_before_left"/>
    <node id="12271837402" x="4701.65" y="1742.54" type="right_before_left"/>
    <node id="12271837403" x="4589.09" y="1740.48" type="priority"/>
    <node id="12271837408" x="4531.86" y="1715.93" type="right_before_left"/>
    <node id="12271837413" x="4054.04" y="1632.01" type="priority"/>
    <node id="12271837414" x="3881.17" y="1592.52" type="right_before_left"/>
    <node id="12271837421" x="3880.82" y="1481.94" type="right_before_left"/>
    <node id="12271837425" x="3901.84" y="1459.08" type="priority"/>
    <node id="12271837429" x="3868.48" y="1466.39" type="priority"/>
    <node id="12271837431" x="3891.95" y="1411.50" type="right_before_left"/>
    <node id="12271837438" x="3359.46" y="1355.21" type="priority"/>
    <node id="12271837439" x="3532.79" y="1390.93" type="right_before_left"/>
    <node id="12271837452" x="3453.57" y="1419.91" type="right_before_left"/>
    <node id="12271837458" x="3393.40" y="1426.60" type="right_before_left"/>
    <node id="12271837472" x="3287.96" y="1503.92" type="right_before_left"/>
    <node id="12271837479" x="3384.15" y="1375.97" type="right_before_left"/>
    <node id="12271837490" x="3245.47" y="1446.61" type="right_before_left"/>
    <node id="12271837491" x="3270.95" y="1413.73" type="priority"/>
    <node id="12271837551" x="3131.75" y="1429.67" type="priority"/>
    <node id="12271837559" x="3178.31" y="1377.27" type="priority"/>
    <node id="12271837602" x="3073.90" y="3372.32" type="priority"/>
    <node id="12271837609" x="3113.74" y="3467.42" type="priority"/>
    <node id="12271837614" x="3125.61" y="3519.40" type="right_before_left"/>
    <node id="12271837618" x="3156.06" y="3574.66" type="priority"/>
    <node id="12271837623" x="3242.06" y="3692.23" type="right_before_left"/>
    <node id="12271837630" x="3373.36" y="3871.87" type="priority"/>
    <node id="12271837635" x="3445.01" y="3971.31" type="priority"/>
    <node id="12271837643" x="3534.10" y="4088.66" type="priority"/>
    <node id="12271837652" x="3623.88" y="4196.23" type="priority"/>
    <node id="12271837670" x="3632.94" y="4211.06" type="right_before_left"/>
    <node id="12271837673" x="3604.60" y="4230.56" type="priority"/>
    <node id="12271837720" x="5800.03" y="4981.82" type="priority"/>
    <node id="12271837748" x="4542.69" y="2243.34" type="priority"/>
    <node id="12388271487" x="3092.86" y="3396.22" type="priority"/>
    <node id="12388271490" x="3123.54" y="3405.94" type="priority"/>
    <node id="12388271494" x="3362.44" y="3942.76" type="dead_end"/>
    <node id="12388271495" x="3393.33" y="3919.41" type="dead_end"/>
    <node id="12388282612" x="3180.79" y="4019.15" type="priority"/>
    <node id="12388282614" x="3126.87" y="4035.64" type="right_before_left"/>
    <node id="12388282617" x="3321.59" y="3890.41" type="priority"/>
    <node id="12388282618" x="3359.66" y="3858.65" type="priority"/>
    <node id="12388282626" x="3230.26" y="3991.73" type="priority"/>
    <node id="12388282627" x="3221.67" y="3980.87" type="right_before_left"/>
    <node id="12388282631" x="3186.94" y="4008.75" type="right_before_left"/>
    <node id="12388282634" x="3216.35" y="3966.09" type="priority"/>
    <node id="12388282641" x="3187.46" y="4028.03" type="priority"/>
    <node id="12388282649" x="3144.01" y="4055.63" type="priority"/>
    <node id="12388282656" x="3155.75" y="4048.97" type="priority"/>
    <node id="12388282658" x="3163.12" y="4047.40" type="priority"/>
    <node id="12388282659" x="3364.33" y="3879.78" type="priority"/>
    <node id="12388282665" x="3223.95" y="4162.25" type="dead_end"/>
    <node id="12388282666" x="3233.46" y="4149.12" type="priority"/>
    <node id="12433233818" x="3740.99" y="2875.77" type="priority"/>
    <node id="12433233822" x="3694.40" y="2887.29" type="priority"/>
    <node id="12433233823" x="3722.73" y="2882.18" type="right_before_left"/>
    <node id="12433233824" x="3717.42" y="2867.64" type="priority"/>
    <node id="12485192513" x="3129.06" y="4039.41" type="right_before_left"/>
    <node id="12485192514" x="3170.59" y="4041.50" type="priority"/>
    <node id="12544901259" x="3541.50" y="6173.51" type="right_before_left"/>
    <node id="12544952149" x="3040.19" y="4781.84" type="priority"/>
    <node id="12544952157" x="2823.50" y="4668.89" type="priority"/>
    <node id="1255036683" x="2495.82" y="2802.39" type="priority"/>
    <node id="1255036690" x="4429.33" y="4776.60" type="right_before_left"/>
    <node id="1255036695" x="1639.08" y="6394.64" type="right_before_left"/>
    <node id="1255036698" x="3750.33" y="1435.82" type="right_before_left"/>
    <node id="1255036748" x="3989.86" y="1454.83" type="right_before_left"/>
    <node id="1255036749" x="4571.94" y="1728.64" type="priority"/>
    <node id="1255036761" x="3718.97" y="1471.23" type="right_before_left"/>
    <node id="1255036762" x="5411.05" y="2885.52" type="right_before_left"/>
    <node id="1255860762" x="5156.78" y="4527.33" type="priority"/>
    <node id="12598868982" x="3889.01" y="1451.53" type="dead_end"/>
    <node id="12644212778" x="3046.64" y="2804.91" type="dead_end"/>
    <node id="12644212779" x="3059.33" y="2807.83" type="dead_end"/>
    <node id="12685221655" x="5492.25" y="4529.67" type="right_before_left"/>
    <node id="1398460280" x="2106.64" y="681.52" type="priority"/>
    <node id="1398460300" x="2085.87" y="739.38" type="priority"/>
    <node id="1398460321" x="2116.23" y="670.98" type="priority"/>
    <node id="1398469803" x="1963.79" y="346.36" type="priority"/>
    <node id="1398469822" x="2054.16" y="640.24" type="dead_end" fringe="inner">
        <param key="buffer_stop" value="true"/>
    </node>
    <node id="1398469830" x="1971.69" y="372.86" type="priority"/>
    <node id="1398469836" x="2058.34" y="638.97" type="dead_end" fringe="inner">
        <param key="buffer_stop" value="true"/>
    </node>
    <node id="1398469847" x="2066.54" y="636.30" type="dead_end" fringe="inner">
        <param key="buffer_stop" value="true"/>
    </node>
    <node id="144970372-AddedOnRampNode" x="5635.09" y="6523.58" type="priority"/>
    <node id="144970373#1-AddedOnRampNode" x="5775.22" y="6062.21" type="priority"/>
    <node id="1513675876" x="5146.92" y="3997.66" type="priority"/>
    <node id="1513675881" x="5145.38" y="4050.00" type="right_before_left"/>
    <node id="1513675897" x="5139.90" y="4039.88" type="right_before_left"/>
    <node id="1513675907" x="5176.65" y="4059.23" type="right_before_left"/>
    <node id="1513675910" x="5153.37" y="4055.36" type="right_before_left"/>