<?xml version="1.0" encoding="UTF-8"?>

<!-- generated on 2025-04-09 04:07:55 by Eclipse SUMO netconvert Version 1.19.0
<configuration xmlns:xsi="http://www.w3.org/2001/XMLSchema-instance" xsi:noNamespaceSchemaLocation="http://sumo.dlr.de/xsd/netconvertConfiguration.xsd">

    <input>
        <sumo-net-file value="parmain/parmain.net.xml"/>
    </input>

    <output>
        <plain-output-prefix value="parmain/parmain"/>
    </output>

    <processing>
        <geometry.min-radius.fix.railways value="false"/>
        <geometry.max-grade.fix value="false"/>
        <offset.disable-normalization value="true"/>
        <lefthand value="0"/>
    </processing>

    <tls_building>
        <tls.ignore-internal-junction-jam value="1"/>
    </tls_building>

    <junctions>
        <no-turnarounds value="true"/>
        <junctions.corner-detail value="5"/>
        <junctions.limit-turn-speed value="5.50"/>
        <rectangular-lane-cut value="0"/>
    </junctions>

    <pedestrian>
        <walkingareas value="0"/>
    </pedestrian>

</configuration>
-->

<connections version="1.16" xmlns:xsi="http://www.w3.org/2001/XMLSchema-instance" xsi:noNamespaceSchemaLocation="http://sumo.dlr.de/xsd/connections_file.xsd">
    <connection from="-1008076095#0" to="-47148536#1" fromLane="0" toLane="0"/>
    <connection from="-1008076095#0" to="47148536#2" fromLane="0" toLane="0"/>
    <connection from="-1008076095#0" to="1008076095#0" fromLane="0" toLane="0"/>

    <connection from="-1008076095#1" to="-1008076095#0" fromLane="0" toLane="0"/>
    <connection from="-1008076095#1" to="1008076096" fromLane="0" toLane="0"/>
    <connection from="-1008076095#1" to="1008076095#1" fromLane="0" toLane="0"/>

    <connection from="-1008076095#2" to="-1008076095#1" fromLane="0" toLane="0"/>
    <connection from="-1008076095#2" to="-1008076095#3" fromLane="0" toLane="0"/>
    <connection from="-1008076095#2" to="1008076095#2" fromLane="0" toLane="0"/>

    <connection from="-1008076095#3" to="-1008076095#2" fromLane="0" toLane="0"/>

    <connection from="-1008076096" to="1008076095#1" fromLane="0" toLane="0"/>
    <connection from="-1008076096" to="-1008076095#0" fromLane="0" toLane="0"/>
    <connection from="-1008076096" to="1008076096" fromLane="0" toLane="0"/>

    <connection from="-1028172020#0" to="-425633311" fromLane="0" toLane="0"/>
    <connection from="-1028172020#0" to="1028172020#0" fromLane="0" toLane="0"/>

    <connection from="-1028172020#1" to="766114573#0" fromLane="0" toLane="0"/>
    <connection from="-1028172020#1" to="-1028172020#0" fromLane="0" toLane="0"/>

    <connection from="-1041728550#0" to="385741461#1" fromLane="0" toLane="0"/>
    <connection from="-1041728550#0" to="-385741461#0" fromLane="0" toLane="0"/>
    <connection from="-1041728550#0" to="1041728550#0" fromLane="0" toLane="0"/>

    <connection from="-1041728550#1" to="-46174585#5" fromLane="0" toLane="0"/>
    <connection from="-1041728550#1" to="-1041728550#0" fromLane="0" toLane="0"/>
    <connection from="-1041728550#1" to="46174585#6" fromLane="0" toLane="0"/>
    <connection from="-1041728550#1" to="1041728550#1" fromLane="0" toLane="0"/>

    <connection from="-1054281667#0" to="-47148453#7" fromLane="0" toLane="0"/>
    <connection from="-1054281667#0" to="-760809397#5" fromLane="0" toLane="0"/>
    <connection from="-1054281667#0" to="1054281667#0" fromLane="0" toLane="0"/>

    <connection from="-1054281667#1" to="-1054281667#0" fromLane="0" toLane="0"/>
    <connection from="-1054281667#1" to="-46740188#6" fromLane="0" toLane="0"/>
    <connection from="-1054281667#1" to="1054281667#1" fromLane="0" toLane="0"/>

    <connection from="-1054281667#2" to="-1054281667#1" fromLane="0" toLane="0"/>
    <connection from="-1054281667#2" to="46740188#0" fromLane="0" toLane="0"/>
    <connection from="-1054281667#2" to="1054281667#2" fromLane="0" toLane="0"/>

    <connection from="-1054281668#0" to="733992941#0" fromLane="0" toLane="0"/>

    <connection from="-1054281668#1" to="-1054281668#0" fromLane="0" toLane="0"/>
    <connection from="-1054281668#1" to="-1093367438#1" fromLane="0" toLane="0"/>

    <connection from="-1054281668#2" to="-1054281668#1" fromLane="0" toLane="0"/>

    <connection from="-1054281668#3" to="-1054281668#2" fromLane="0" toLane="0"/>

    <connection from="-1054281669" to="733992941#7" fromLane="0" toLane="0"/>
    <connection from="-1054281669" to="-733992941#6" fromLane="0" toLane="0"/>
    <connection from="-1054281669" to="1054281669" fromLane="0" toLane="0"/>

    <connection from="-1058326901" to="1060223827#1" fromLane="0" toLane="0"/>
    <connection from="-1058326901" to="-1060223827#0" fromLane="0" toLane="0"/>
    <connection from="-1058326901" to="1058326901" fromLane="0" toLane="0"/>

    <connection from="-1060223827#0" to="31878986#0" fromLane="0" toLane="0"/>
    <connection from="-1060223827#0" to="425633729" fromLane="0" toLane="0"/>
    <connection from="-1060223827#0" to="1060223827#0" fromLane="0" toLane="0"/>

    <connection from="-1060223827#1" to="-1060223827#0" fromLane="0" toLane="0"/>
    <connection from="-1060223827#1" to="1058326901" fromLane="0" toLane="0"/>
    <connection from="-1060223827#1" to="1060223827#1" fromLane="0" toLane="0"/>

    <connection from="-1060223827#2" to="-47148616" fromLane="0" toLane="0"/>
    <connection from="-1060223827#2" to="-1060223827#1" fromLane="0" toLane="0"/>
    <connection from="-1060223827#2" to="1060223827#2" fromLane="0" toLane="0"/>

    <connection from="-1060223827#3" to="-1060223827#2" fromLane="0" toLane="0"/>
    <connection from="-1060223827#3" to="47148594#0" fromLane="0" toLane="0"/>
    <connection from="-1060223827#3" to="1060223827#3" fromLane="0" toLane="0"/>

    <connection from="-1061421029" to="1061421027" fromLane="0" toLane="0"/>
    <connection from="-1061421029" to="1061421029" fromLane="0" toLane="0"/>

    <connection from="-1061421030" to="46270738#1" fromLane="0" toLane="0"/>
    <connection from="-1061421030" to="-46270738#0" fromLane="0" toLane="0"/>
    <connection from="-1061421030" to="1061421030" fromLane="0" toLane="0"/>

    <connection from="-1061421031" to="46271447#5" fromLane="0" toLane="0"/>
    <connection from="-1061421031" to="-46271447#4" fromLane="0" toLane="0"/>
    <connection from="-1061421031" to="1061421031" fromLane="0" toLane="0"/>

    <connection from="-1061421032" to="342810648#8" fromLane="0" toLane="0"/>
    <connection from="-1061421032" to="-342810648#7" fromLane="0" toLane="0"/>
    <connection from="-1061421032" to="1061421032" fromLane="0" toLane="0"/>

    <connection from="-1061421033#0" to="-35591641#1" fromLane="0" toLane="0"/>
    <connection from="-1061421033#0" to="35591641#2" fromLane="0" toLane="0"/>
    <connection from="-1061421033#0" to="1061421033#0" fromLane="0" toLane="0"/>

    <connection from="-1061421033#1" to="-1061421033#2" fromLane="0" toLane="0"/>
    <connection from="-1061421033#1" to="-1061421033#0" fromLane="0" toLane="0"/>
    <connection from="-1061421033#1" to="1061421033#1" fromLane="0" toLane="0"/>

    <connection from="-1061421033#2" to="-1061421033#1" fromLane="0" toLane="0"/>

    <connection from="-1061421034" to="46739795#6" fromLane="0" toLane="0"/>
    <connection from="-1061421034" to="1061421034" fromLane="0" toLane="0"/>

    <connection from="-1061421039" to="46727086#8" fromLane="0" toLane="0"/>
    <connection from="-1061421039" to="-46727086#7" fromLane="0" toLane="0"/>
    <connection from="-1061421039" to="1061421039" fromLane="0" toLane="0"/>

    <connection from="-1061421040" to="-301514301#0" fromLane="0" toLane="0"/>
    <connection from="-1061421040" to="301514301#1" fromLane="0" toLane="0"/>
    <connection from="-1061421040" to="1061421040" fromLane="0" toLane="0"/>

    <connection from="-1061421041" to="781344707#2" fromLane="0" toLane="0"/>
    <connection from="-1061421041" to="-781344707#1" fromLane="0" toLane="0"/>
    <connection from="-1061421041" to="1061421041" fromLane="0" toLane="0"/>

    <connection from="-1061421042" to="-301514291#0" fromLane="0" toLane="0"/>
    <connection from="-1061421042" to="301514291#1" fromLane="0" toLane="0"/>
    <connection from="-1061421042" to="1061421042" fromLane="0" toLane="0"/>

    <connection from="-1061421043" to="47148615#2" fromLane="0" toLane="0"/>
    <connection from="-1061421043" to="-47148615#1" fromLane="0" toLane="0"/>
    <connection from="-1061421043" to="1061421043" fromLane="0" toLane="0"/>

    <connection from="-1086983789#0" to="-46736995#3" fromLane="0" toLane="0"/>
    <connection from="-1086983789#0" to="1086983790#0" fromLane="0" toLane="0"/>
    <connection from="-1086983789#0" to="1086983789#0" fromLane="0" toLane="0"/>

    <connection from="-1086983789#1" to="-1086983789#0" fromLane="0" toLane="0"/>
    <connection from="-1086983789#1" to="767348303#0" fromLane="0" toLane="0"/>
    <connection from="-1086983789#1" to="1086983789#1" fromLane="0" toLane="0"/>

    <connection from="-1086983789#2" to="-1086983789#1" fromLane="0" toLane="0"/>
    <connection from="-1086983789#2" to="767348300#0" fromLane="0" toLane="0"/>

    <connection from="-1086983789#3" to="-1086983789#2" fromLane="0" toLane="0"/>
    <connection from="-1086983789#3" to="1086983789#3" fromLane="0" toLane="0"/>

    <connection from="-1086983790#0" to="1086983789#0" fromLane="0" toLane="0"/>
    <connection from="-1086983790#0" to="-46736995#3" fromLane="0" toLane="0"/>
    <connection from="-1086983790#0" to="1086983790#0" fromLane="0" toLane="0"/>

    <connection from="-1086983790#1" to="239125064" fromLane="0" toLane="0"/>
    <connection from="-1086983790#1" to="-1086983790#0" fromLane="0" toLane="0"/>

    <connection from="-1091204826#0" to="1091204826#0" fromLane="0" toLane="0"/>

    <connection from="-1091204826#1" to="-1091204826#0" fromLane="0" toLane="0"/>

    <connection from="-1093364494" to="1093364516" fromLane="0" toLane="0"/>

    <connection from="-1093364496" to="1093364513" fromLane="0" toLane="0"/>

    <connection from="-1093364502" to="46354267#2" fromLane="0" toLane="0"/>
    <connection from="-1093364502" to="-46354267#1" fromLane="0" toLane="0"/>
    <connection from="-1093364502" to="1093364501" fromLane="0" toLane="0"/>

    <connection from="-1093364504" to="1093364518" fromLane="0" toLane="0"/>

    <connection from="-1093364506" to="1093364512" fromLane="0" toLane="0"/>

    <connection from="-1093364508" to="-46271447#2" fromLane="0" toLane="0"/>
    <connection from="-1093364508" to="46271447#3" fromLane="0" toLane="0"/>
    <connection from="-1093364508" to="1093364499" fromLane="0" toLane="0"/>

    <connection from="-1093364509" to="1093364511" fromLane="0" toLane="0"/>

    <connection from="-1093364514" to="1093364514" fromLane="0" toLane="0"/>

    <connection from="-1093364515" to="1093364515" fromLane="0" toLane="0"/>

    <connection from="-1093364519" to="46354270#1" fromLane="0" toLane="0"/>
    <connection from="-1093364519" to="-46354270#0" fromLane="0" toLane="0"/>
    <connection from="-1093364519" to="1093364521" fromLane="0" toLane="0"/>

    <connection from="-1093364522" to="1093364524" fromLane="0" toLane="0"/>

    <connection from="-1093364525" to="1093364527" fromLane="0" toLane="0"/>

    <connection from="-1093367438#0" to="1093367438#0" fromLane="0" toLane="0"/>

    <connection from="-1093367438#1" to="-1093367438#0" fromLane="0" toLane="0"/>
    <connection from="-1093367438#1" to="1093367438#1" fromLane="0" toLane="0"/>

    <connection from="-1093367440" to="1093367440" fromLane="0" toLane="0"/>

    <connection from="-1093367441" to="733992941#2" fromLane="0" toLane="0"/>
    <connection from="-1093367441" to="-733992941#1" fromLane="0" toLane="0"/>
    <connection from="-1093367441" to="1093367441" fromLane="0" toLane="0"/>

    <connection from="-109690729" to="47148509#1" fromLane="0" toLane="0"/>
    <connection from="-109690729" to="-47148509#0" fromLane="0" toLane="0"/>
    <connection from="-109690729" to="109690729" fromLane="0" toLane="0"/>

    <connection from="-109690730" to="-809581641#0" fromLane="0" toLane="0"/>
    <connection from="-109690730" to="809581641#1" fromLane="0" toLane="0"/>
    <connection from="-109690730" to="109690730" fromLane="0" toLane="0"/>

    <connection from="-109791045#0" to="-1251272617#0" fromLane="0" toLane="0"/>
    <connection from="-109791045#0" to="1251235228#0" fromLane="0" toLane="0"/>
    <connection from="-109791045#0" to="1251272617#1" fromLane="0" toLane="0"/>
    <connection from="-109791045#0" to="109791045#0" fromLane="0" toLane="0"/>

    <connection from="-109791045#1" to="-1326345130#1" fromLane="0" toLane="0"/>
    <connection from="-109791045#1" to="-109791045#0" fromLane="0" toLane="0"/>
    <connection from="-109791045#1" to="109791045#1" fromLane="0" toLane="0"/>

    <connection from="-109791045#2" to="-310282661#1" fromLane="0" toLane="0"/>
    <connection from="-109791045#2" to="-109791045#1" fromLane="0" toLane="0"/>
    <connection from="-109791045#2" to="109791045#2" fromLane="0" toLane="0"/>

    <connection from="-109791045#3" to="-109791045#2" fromLane="0" toLane="0"/>
    <connection from="-109791045#3" to="1326345131" fromLane="0" toLane="0"/>
    <connection from="-109791045#3" to="109791045#3" fromLane="0" toLane="0"/>

    <connection from="-109791045#4" to="47148313#3" fromLane="0" toLane="0"/>
    <connection from="-109791045#4" to="-109791045#3" fromLane="0" toLane="0"/>
    <connection from="-109791045#4" to="-47148313#2" fromLane="0" toLane="0"/>
    <connection from="-109791045#4" to="109791045#4" fromLane="0" toLane="0"/>

    <connection from="-109791045#5" to="-109791045#4" fromLane="0" toLane="0"/>
    <connection from="-109791045#5" to="109791045#5" fromLane="0" toLane="0"/>

    <connection from="-109791045#6" to="47148323#1" fromLane="0" toLane="0"/>
    <connection from="-109791045#6" to="-109791045#5" fromLane="0" toLane="0"/>
    <connection from="-109791045#6" to="-47148323#0" fromLane="0" toLane="0"/>
    <connection from="-109791045#6" to="109791045#6" fromLane="0" toLane="0"/>

    <connection from="-1098224167#0" to="1098224167#0" fromLane="0" toLane="0"/>

    <connection from="-1098224167#1" to="-342804888" fromLane="0" toLane="0"/>
    <connection from="-1098224167#1" to="-1098224167#0" fromLane="0" toLane="0"/>
    <connection from="-1098224167#1" to="614245701" fromLane="0" toLane="0"/>
    <connection from="-1098224167#1" to="1098224167#1" fromLane="0" toLane="0"/>

    <connection from="-1098238067" to="348827048#2" fromLane="0" toLane="0"/>
    <connection from="-1098238067" to="-348827048#1" fromLane="0" toLane="0"/>
    <connection from="-1098238067" to="1098238067" fromLane="0" toLane="0"/>

    <connection from="-1098238070" to="1098238071" fromLane="0" toLane="0"/>
    <connection from="-1098238070" to="1098238070" fromLane="0" toLane="0"/>

    <connection from="-1098238072#0" to="614245696#2" fromLane="0" toLane="0"/>
    <connection from="-1098238072#0" to="1098238072#0" fromLane="0" toLane="0"/>

    <connection from="-1098238072#1" to="-1098238072#0" fromLane="0" toLane="0"/>
    <connection from="-1098238072#1" to="1098238072#1" fromLane="0" toLane="0"/>

    <connection from="-1098238078#0" to="807719763#1" fromLane="0" toLane="0"/>
    <connection from="-1098238078#0" to="1098238078#0" fromLane="0" toLane="0"/>

    <connection from="-1098238078#1" to="46429660#1" fromLane="0" toLane="0"/>
    <connection from="-1098238078#1" to="-1098238078#0" fromLane="0" toLane="0"/>
    <connection from="-1098238078#1" to="1098238078#1" fromLane="0" toLane="0"/>

    <connection from="-1098769752" to="-46482829#0" fromLane="0" toLane="0"/>
    <connection from="-1098769752" to="46482829#1" fromLane="0" toLane="0"/>
    <connection from="-1098769752" to="1098769752" fromLane="0" toLane="0"/>

    <connection from="-1098769754" to="-46483206#2" fromLane="0" toLane="0"/>
    <connection from="-1098769754" to="46483206#3" fromLane="0" toLane="0"/>
    <connection from="-1098769754" to="1098769754" fromLane="0" toLane="0"/>

    <connection from="-1098826687" to="-215047283" fromLane="0" toLane="0" keepClear="0"/>

    <connection from="-1098826688" to="-215044621" fromLane="0" toLane="0"/>
    <connection from="-1098826688" to="215047283" fromLane="0" toLane="0"/>
    <connection from="-1098826688" to="1098826688" fromLane="0" toLane="0"/>

    <connection from="-1098829519" to="-627405082#2" fromLane="0" toLane="0"/>
    <connection from="-1098829519" to="627405082#3" fromLane="0" toLane="0"/>
    <connection from="-1098829519" to="1098829519" fromLane="0" toLane="0"/>

    <connection from="-1098829520" to="47148682#6" fromLane="0" toLane="0"/>
    <connection from="-1098829520" to="-47148682#5" fromLane="0" toLane="0"/>
    <connection from="-1098829520" to="1098829520" fromLane="0" toLane="0"/>

    <connection from="-1098829521" to="47148698#1" fromLane="0" toLane="0"/>
    <connection from="-1098829521" to="-47148698#0" fromLane="0" toLane="0"/>
    <connection from="-1098829521" to="1098829521" fromLane="0" toLane="0"/>

    <connection from="-1098829522" to="31878987#4" fromLane="0" toLane="0"/>
    <connection from="-1098829522" to="-31878987#3" fromLane="0" toLane="0"/>
    <connection from="-1098829522" to="1098829522" fromLane="0" toLane="0"/>

    <connection from="-1098829523" to="627405082#2" fromLane="0" toLane="0"/>
    <connection from="-1098829523" to="-627405082#1" fromLane="0" toLane="0"/>
    <connection from="-1098829523" to="1098829523" fromLane="0" toLane="0"/>

    <connection from="-1098830732#0" to="-358808038" fromLane="0" toLane="0"/>
    <connection from="-1098830732#0" to="-358808045" fromLane="0" toLane="0"/>
    <connection from="-1098830732#0" to="358808046" fromLane="0" toLane="0"/>

    <connection from="-1098830732#1" to="-1098830732#0" fromLane="0" toLane="0"/>
    <connection from="-1098830732#1" to="1098830732#1" fromLane="0" toLane="0"/>

    <connection from="-1099334888" to="-47148560#1" fromLane="0" toLane="0"/>
    <connection from="-1099334888" to="47148560#2" fromLane="0" toLane="0"/>
    <connection from="-1099334888" to="1099334888" fromLane="0" toLane="0"/>

    <connection from="-1100568712#0" to="190361829#5" fromLane="0" toLane="0"/>
    <connection from="-1100568712#0" to="1100568712#0" fromLane="0" toLane="0"/>

    <connection from="-1100568712#1" to="692757396#1" fromLane="0" toLane="0"/>
    <connection from="-1100568712#1" to="-1100568712#0" fromLane="0" toLane="0"/>
    <connection from="-1100568712#1" to="1100568712#1" fromLane="0" toLane="0"/>

    <connection from="-1100568716#0" to="-169197733#3" fromLane="0" toLane="0"/>
    <connection from="-1100568716#0" to="-46192115" fromLane="0" toLane="0"/>
    <connection from="-1100568716#0" to="1100568716#0" fromLane="0" toLane="0"/>

    <connection from="-1100568716#1" to="-1100568716#0" fromLane="0" toLane="0"/>
    <connection from="-1100568716#1" to="1100568719#0" fromLane="0" toLane="0"/>
    <connection from="-1100568716#1" to="1100568716#1" fromLane="0" toLane="0"/>

    <connection from="-1100568716#2" to="-46174584#0" fromLane="0" toLane="0"/>
    <connection from="-1100568716#2" to="-1100568716#1" fromLane="0" toLane="0"/>
    <connection from="-1100568716#2" to="46174584#1" fromLane="0" toLane="0"/>
    <connection from="-1100568716#2" to="1100568716#2" fromLane="0" toLane="0"/>

    <connection from="-1100568719#0" to="1100568716#1" fromLane="0" toLane="0"/>
    <connection from="-1100568719#0" to="-1100568716#0" fromLane="0" toLane="0"/>
    <connection from="-1100568719#0" to="1100568719#0" fromLane="0" toLane="0"/>

    <connection from="-1100568719#1" to="-190361832#1" fromLane="0" toLane="0"/>
    <connection from="-1100568719#1" to="-1100568719#0" fromLane="0" toLane="0"/>
    <connection from="-1100568719#1" to="190361832#2" fromLane="0" toLane="0"/>
    <connection from="-1100568719#1" to="1100568719#1" fromLane="0" toLane="0"/>

    <connection from="-1101218082" to="-46173387#3" fromLane="0" toLane="0"/>
    <connection from="-1101218082" to="46173387#4" fromLane="0" toLane="0"/>
    <connection from="-1101218082" to="1101218082" fromLane="0" toLane="0"/>

    <connection from="-1104948295#0" to="47148679#0" fromLane="0" toLane="0"/>
    <connection from="-1104948295#0" to="-29333648#2" fromLane="0" toLane="0"/>
    <connection from="-1104948295#0" to="301953010#0" fromLane="0" toLane="0"/>
    <connection from="-1104948295#0" to="-342563269" fromLane="0" toLane="0"/>
    <connection from="-1104948295#0" to="1104948295#0" fromLane="0" toLane="0"/>

    <connection from="-1104948295#1" to="-1104948295#0" fromLane="0" toLane="0"/>

    <connection from="-1104948295#2" to="-1104948295#1" fromLane="0" toLane="0"/>

    <connection from="-1104948295#3" to="-1104948295#2" fromLane="0" toLane="0"/>

    <connection from="-1107032109#0" to="46195218#1" fromLane="0" toLane="0"/>
    <connection from="-1107032109#0" to="-46195218#0" fromLane="0" toLane="0"/>
    <connection from="-1107032109#0" to="1107032109#0" fromLane="0" toLane="0"/>

    <connection from="-1107032109#1" to="-1107032109#2" fromLane="0" toLane="0"/>
    <connection from="-1107032109#1" to="-1107032109#0" fromLane="0" toLane="0"/>
    <connection from="-1107032109#1" to="1107032109#1" fromLane="0" toLane="0"/>

    <connection from="-1107032109#2" to="-1107032109#1" fromLane="0" toLane="0"/>

    <connection from="-1112232938" to="1112232938" fromLane="0" toLane="0"/>

    <connection from="-1115651168#0" to="-342563260" fromLane="0" toLane="0"/>
    <connection from="-1115651168#0" to="1115651168#0" fromLane="0" toLane="0"/>

    <connection from="-1115651168#1" to="-1115651168#0" fromLane="0" toLane="0"/>
    <connection from="-1115651168#1" to="1115651168#1" fromLane="0" toLane="0"/>

    <connection from="-1118360555#0" to="1363608708#1" fromLane="0" toLane="0"/>
    <connection from="-1118360555#0" to="-1363608708#0" fromLane="0" toLane="0"/>
    <connection from="-1118360555#0" to="1118360555#0" fromLane="0" toLane="0"/>

    <connection from="-1118442878" to="571458924" fromLane="0" toLane="0"/>
    <connection from="-1118442878" to="-1118442885" fromLane="0" toLane="0"/>
    <connection from="-1118442878" to="1118442878" fromLane="0" toLane="0"/>

    <connection from="-1118442880" to="-1118442881" fromLane="0" toLane="0"/>
    <connection from="-1118442880" to="-571458924" fromLane="0" toLane="0"/>
    <connection from="-1118442880" to="1118442880" fromLane="0" toLane="0"/>

    <connection from="-1118442881" to="571458925" fromLane="0" toLane="0"/>
    <connection from="-1118442881" to="-46271015#1" fromLane="0" toLane="0"/>
    <connection from="-1118442881" to="1118442881" fromLane="0" toLane="0"/>

    <connection from="-1118442882" to="46456852" fromLane="0" toLane="0"/>
    <connection from="-1118442882" to="-46271444#1" fromLane="0" toLane="0"/>
    <connection from="-1118442882" to="1118442882" fromLane="0" toLane="0"/>

    <connection from="-1118442885" to="-46456845#2" fromLane="0" toLane="0"/>
    <connection from="-1118442885" to="-46192121#4" fromLane="0" toLane="0"/>
    <connection from="-1118442885" to="46481326" fromLane="0" toLane="0"/>
    <connection from="-1118442885" to="1118442885" fromLane="0" toLane="0"/>

    <connection from="-1118972230#0" to="-45261694#2" fromLane="0" toLane="0"/>
    <connection from="-1118972230#0" to="-45257574" fromLane="0" toLane="0"/>
    <connection from="-1118972230#0" to="1118972230#0" fromLane="0" toLane="0"/>

    <connection from="-1118972230#1" to="978856934#1" fromLane="0" toLane="0"/>
    <connection from="-1118972230#1" to="-1118972230#0" fromLane="0" toLane="0"/>
    <connection from="-1118972230#1" to="-978856934#0" fromLane="0" toLane="0"/>
    <connection from="-1118972230#1" to="1118972230#1" fromLane="0" toLane="0"/>

    <connection from="-1118972230#2" to="46192121#0" fromLane="0" toLane="0"/>
    <connection from="-1118972230#2" to="-1118972230#1" fromLane="0" toLane="0"/>
    <connection from="-1118972230#2" to="1118972230#2" fromLane="0" toLane="0"/>

    <connection from="-1118972230#3" to="-633885832" fromLane="0" toLane="0"/>
    <connection from="-1118972230#3" to="-1118972230#2" fromLane="0" toLane="0"/>
    <connection from="-1118972230#3" to="1118972230#3" fromLane="0" toLane="0"/>

    <connection from="-1122667069#0" to="-1054281668#3" fromLane="0" toLane="0"/>
    <connection from="-1122667069#0" to="-424501481#4" fromLane="0" toLane="0"/>
    <connection from="-1122667069#0" to="-46727647#11" fromLane="0" toLane="0"/>
    <connection from="-1122667069#0" to="1122667069#0" fromLane="0" toLane="0"/>

    <connection from="-1123613062#1" to="-1123613062#0" fromLane="0" toLane="0"/>
    <connection from="-1123613062#1" to="1123613062#1" fromLane="0" toLane="0"/>

    <connection from="-1154797833" to="-733992941#10" fromLane="0" toLane="0"/>
    <connection from="-1154797833" to="-358808053#2" fromLane="0" toLane="0"/>

    <connection from="-1159735485" to="-276322383#0" fromLane="0" toLane="0"/>
    <connection from="-1159735485" to="276322383#1" fromLane="0" toLane="0"/>
    <connection from="-1159735485" to="1159735485" fromLane="0" toLane="0"/>

    <connection from="-1196379287#0" to="-781344705#10" fromLane="0" toLane="0"/>
    <connection from="-1196379287#0" to="-301762897#5" fromLane="0" toLane="0"/>
    <connection from="-1196379287#0" to="1196379288" fromLane="0" toLane="0"/>
    <connection from="-1196379287#0" to="1196379287#0" fromLane="0" toLane="0"/>

    <connection from="-1196379287#1" to="-1196379287#0" fromLane="0" toLane="0"/>
    <connection from="-1196379287#1" to="377712848#0" fromLane="0" toLane="0"/>
    <connection from="-1196379287#1" to="1196379287#1" fromLane="0" toLane="0"/>

    <connection from="-1196379287#2" to="-47148419" fromLane="0" toLane="0"/>
    <connection from="-1196379287#2" to="-1196379287#1" fromLane="0" toLane="0"/>
    <connection from="-1196379287#2" to="1196379287#2" fromLane="0" toLane="0"/>

    <connection from="-1196379288" to="1196379287#0" fromLane="0" toLane="0"/>
    <connection from="-1196379288" to="-781344705#10" fromLane="0" toLane="0"/>
    <connection from="-1196379288" to="-301762897#5" fromLane="0" toLane="0"/>
    <connection from="-1196379288" to="1196379288" fromLane="0" toLane="0"/>

    <connection from="-1196379289#0" to="46737775#0" fromLane="0" toLane="0"/>
    <connection from="-1196379289#0" to="-1196379287#2" fromLane="0" toLane="0"/>
    <connection from="-1196379289#0" to="46758913" fromLane="0" toLane="0"/>
    <connection from="-1196379289#0" to="1196379289#0" fromLane="0" toLane="0"/>

    <connection from="-1196379289#1" to="301514295#0" fromLane="0" toLane="0"/>
    <connection from="-1196379289#1" to="-1196379289#0" fromLane="0" toLane="0"/>
    <connection from="-1196379289#1" to="1196379289#1" fromLane="0" toLane="0"/>

    <connection from="-1196379290" to="46737501#0" fromLane="0" toLane="0"/>
    <connection from="-1196379290" to="1196379290" fromLane="0" toLane="0"/>

    <connection from="-1196379293#0" to="-303201019#2" fromLane="0" toLane="0"/>
    <connection from="-1196379293#0" to="46737498#0" fromLane="0" toLane="0"/>
    <connection from="-1196379293#0" to="1196379293#0" fromLane="0" toLane="0"/>

    <connection from="-1196379293#1" to="-1196379293#0" fromLane="0" toLane="0"/>

    <connection from="-1196379294#0" to="11985118" fromLane="0" toLane="0"/>
    <connection from="-1196379294#0" to="1196379294#0" fromLane="0" toLane="0"/>

    <connection from="-1196379294#1" to="-1196379294#0" fromLane="0" toLane="0"/>

    <connection from="-1196379294#2" to="-1196379294#1" fromLane="0" toLane="0"/>
    <connection from="-1196379294#2" to="1326121442" fromLane="0" toLane="0"/>

    <connection from="-1196379294#3" to="-1196379294#2" fromLane="0" toLane="0"/>
    <connection from="-1196379294#3" to="-1326121444" fromLane="0" toLane="0"/>

    <connection from="-1196379294#4" to="733992932" fromLane="0" toLane="0"/>
    <connection from="-1196379294#4" to="-1196379294#3" fromLane="0" toLane="0"/>

    <connection from="-1196379294#5" to="-1196379294#4" fromLane="0" toLane="0"/>
    <connection from="-1196379294#5" to="1326121438#0" fromLane="0" toLane="0"/>

    <connection from="-1196379294#6" to="47155511#0" fromLane="0" toLane="0"/>
    <connection from="-1196379294#6" to="-1196379294#5" fromLane="0" toLane="0"/>
    <connection from="-1196379294#6" to="845988796" fromLane="0" toLane="0"/>
    <connection from="-1196379294#6" to="1196379294#6" fromLane="0" toLane="0"/>

    <connection from="-1196379294#7" to="-1196379294#6" fromLane="0" toLane="0"/>

    <connection from="-1196379294#8" to="-1196379294#7" fromLane="0" toLane="0"/>

    <connection from="-1196379294#9" to="-845988794#0" fromLane="0" toLane="0"/>
    <connection from="-1196379294#9" to="-1196379294#8" fromLane="0" toLane="0"/>
    <connection from="-1196379294#9" to="845988794#1" fromLane="0" toLane="0"/>

    <connection from="-1196379295" to="1326345149#5" fromLane="0" toLane="0"/>
    <connection from="-1196379295" to="-1122667069#0" fromLane="0" toLane="0"/>
    <connection from="-1196379295" to="-1326345149#4" fromLane="0" toLane="0"/>

    <connection from="-1196379298#0" to="-301514274#1" fromLane="0" toLane="0"/>
    <connection from="-1196379298#0" to="-301514274#1" fromLane="0" toLane="1"/>

    <connection from="-1196379298#1" to="1343739024#0" fromLane="0" toLane="0"/>
    <connection from="-1196379298#1" to="-1196379298#0" fromLane="0" toLane="0"/>

    <connection from="-1196379298#2" to="-1196379298#1" fromLane="0" toLane="0"/>
    <connection from="-1196379298#2" to="342814173" fromLane="0" toLane="0"/>

    <connection from="-1202702881" to="-280229609#2" fromLane="0" toLane="0" keepClear="0"/>

    <connection from="-1215714977" to="1215714977" fromLane="0" toLane="0"/>
