<edges xmlns:xsi="http://www.w3.org/2001/XMLSchema-instance" version="1.16" xsi:noNamespaceSchemaLocation="http://sumo.dlr.de/xsd/edges_file.xsd">
    <location netOffset="-439702.67,-5437293.63" convBoundary="0.00,0.00,7125.40,8770.16" origBoundary="1.932246,49.036644,2.546646,49.164546" projParameter="+proj=utm +zone=31 +ellps=WGS84 +datum=WGS84 +units=m +no_defs" />

    <edge id="-1028172020#0" from="7155169892" to="4249196989" priority="3" type="highway.residential" numLanes="1" speed="13.89" disallow="tram rail_urban rail rail_electric rail_fast ship" />
    <edge id="-1028172020#1" from="2244693553" to="7155169892" priority="3" type="highway.residential" numLanes="1" speed="13.89" disallow="tram rail_urban rail rail_electric rail_fast ship" />
    <edge id="-1054281667#0" from="597457863" to="601054796" priority="4" type="highway.unclassified" numLanes="1" speed="13.89" disallow="tram rail_urban rail rail_electric rail_fast ship" />
    <edge id="-1054281667#1" from="597457876" to="597457863" priority="4" type="highway.unclassified" numLanes="1" speed="13.89" disallow="tram rail_urban rail rail_electric rail_fast ship" />
    <edge id="-1054281667#2" from="597366605" to="597457876" priority="4" type="highway.unclassified" numLanes="1" speed="13.89" disallow="tram rail_urban rail rail_electric rail_fast ship" />
    <edge id="-1054281668#0" from="10013337773" to="6874241321" priority="4" type="highway.unclassified" numLanes="1" speed="13.89" disallow="tram rail_urban rail rail_electric rail_fast ship" />
    <edge id="-1054281668#1" from="8951202390" to="10013337773" priority="4" type="highway.unclassified" numLanes="1" speed="13.89" disallow="tram rail_urban rail rail_electric rail_fast ship" />
    <edge id="-1054281668#2" from="3536963729" to="8951202390" priority="4" type="highway.unclassified" numLanes="1" speed="13.89" disallow="tram rail_urban rail rail_electric rail_fast ship" />
    <edge id="-1054281668#3" from="597354815" to="3536963729" priority="4" type="highway.unclassified" numLanes="1" speed="13.89" shape="3370.77,3874.30 3376.73,3883.72 3443.00,3973.09" disallow="tram rail_urban rail rail_electric rail_fast ship" />
    <edge id="-1054281669" from="6874241311" to="6874241318" priority="3" type="highway.residential" numLanes="1" speed="13.89" disallow="tram rail_urban rail rail_electric rail_fast ship" />
    <edge id="-1060223827#0" from="601055964" to="356988095" priority="4" type="highway.unclassified" numLanes="1" speed="13.89" shape="4522.24,5978.26 4513.43,5924.96 4563.41,5854.05 4573.03,5850.88" disallow="tram rail_urban rail rail_electric rail_fast ship" />
    <edge id="-1060223827#1" from="601055965" to="601055964" priority="4" type="highway.unclassified" numLanes="1" speed="13.89" shape="4383.47,6174.94 4409.93,6140.08 4460.37,6065.36 4512.17,6011.85 4522.24,5978.26" disallow="tram rail_urban rail rail_electric rail_fast ship" />
    <edge id="-1060223827#2" from="601055969" to="601055965" priority="4" type="highway.unclassified" numLanes="1" speed="13.89" disallow="tram rail_urban rail rail_electric rail_fast ship" />
    <edge id="-1060223827#3" from="601056049" to="601055969" priority="4" type="highway.unclassified" numLanes="1" speed="13.89" shape="4213.22,6387.09 4216.24,6385.89 4266.77,6326.50 4295.33,6291.09 4379.35,6180.37" disallow="tram rail_urban rail rail_electric rail_fast ship" />
    <edge id="-1061421029" from="590829142" to="9751933383" priority="3" type="highway.residential" numLanes="1" speed="13.89" shape="2083.69,1107.77 2089.78,1177.34 2090.03,1182.52" disallow="tram rail_urban rail rail_electric rail_fast ship" />
    <edge id="-1061421030" from="9751933393" to="9751933402" priority="3" type="highway.residential" numLanes="1" speed="13.89" shape="2172.88,1100.51 2154.85,1043.30 2146.94,1026.79 2143.58,1023.60 2137.97,1021.31 2129.75,1021.70 2110.80,1025.41 2083.28,1025.60 2057.91,1023.62 1929.58,1030.45" disallow="tram rail_urban rail rail_electric rail_fast ship" />
    <edge id="-1061421042" from="9752001965" to="9752001968" priority="3" type="highway.residential" numLanes="1" speed="13.89" shape="4102.62,3468.79 4076.29,3478.63 4069.75,3489.53 4040.71,3499.84" disallow="tram rail_urban rail rail_electric rail_fast ship" />
    <edge id="-1086983789#0" from="7164665698" to="597428424" priority="4" type="highway.unclassified" numLanes="1" speed="13.89" disallow="tram rail_urban rail rail_electric rail_fast ship" />
    <edge id="-1086983789#1" from="7164665688" to="7164665698" priority="4" type="highway.unclassified" numLanes="1" speed="13.89" disallow="tram rail_urban rail rail_electric rail_fast ship" />
    <edge id="-1086983789#2" from="3811001393" to="7164665688" priority="4" type="highway.unclassified" numLanes="1" speed="13.89" disallow="tram rail_urban rail rail_electric rail_fast ship" />
    <edge id="-1086983789#3" from="597428422" to="3811001393" priority="4" type="highway.unclassified" numLanes="1" speed="13.89" shape="3683.35,2444.70 3677.27,2441.37 3671.77,2432.31" disallow="tram rail_urban rail rail_electric rail_fast ship" />
    <edge id="-1086983790#0" from="2469277859" to="597428424" priority="3" type="highway.residential" numLanes="1" speed="13.89" shape="3620.90,2065.82 3601.38,2113.50 3593.47,2131.11 3570.57,2180.18 3519.05,2268.91" disallow="tram rail_urban rail rail_electric rail_fast ship" />
    <edge id="-1086983790#1" from="597440983" to="2469277859" priority="3" type="highway.residential" numLanes="1" speed="13.89" disallow="tram rail_urban rail rail_electric rail_fast ship" />
    <edge id="-1091204826#0" from="589000028" to="589000037" priority="3" type="highway.residential" numLanes="1" speed="8.33" shape="1567.71,986.55 1571.40,990.29 1573.66,993.24 1573.91,995.44 1569.75,1010.33 1569.56,1014.28 1568.75,1023.88" disallow="tram rail_urban rail rail_electric rail_fast ship" />
    <edge id="-1091204826#1" from="2843791000" to="589000028" priority="3" type="highway.residential" numLanes="1" speed="8.33" shape="1608.23,918.93 1599.57,921.93 1592.64,924.85 1587.11,928.78 1582.95,934.43 1578.45,943.48 1570.83,962.02 1567.95,974.29 1567.70,982.72 1567.71,986.55" disallow="tram rail_urban rail rail_electric rail_fast ship" />
    <edge id="-1100568712#0" from="588669455" to="2009797704" priority="4" type="highway.unclassified" numLanes="1" speed="13.89" disallow="tram rail_urban rail rail_electric rail_fast ship" />
    <edge id="-1100568712#1" from="1856035570" to="588669455" priority="4" type="highway.unclassified" numLanes="1" speed="13.89" disallow="tram rail_urban rail rail_electric rail_fast ship" />
    <edge id="-1104948295#0" from="3912677464" to="322702423" priority="3" type="highway.residential" numLanes="1" speed="13.89" disallow="tram rail_urban rail rail_electric rail_fast ship" />
    <edge id="-1104948295#1" from="5763007181" to="3912677464" priority="3" type="highway.residential" numLanes="1" speed="13.89" disallow="tram rail_urban rail rail_electric rail_fast ship" />
    <edge id="-1104948295#2" from="2711131654" to="5763007181" priority="3" type="highway.residential" numLanes="1" speed="13.89" disallow="tram rail_urban rail rail_electric rail_fast ship" distance="-42947.00" />
    <edge id="-1104948295#3" from="10064195698" to="2711131654" priority="3" type="highway.residential" numLanes="1" speed="13.89" disallow="tram rail_urban rail rail_electric rail_fast ship" />
    <edge id="-1115651168#0" from="601055580" to="3495375626" priority="11" type="highway.secondary" numLanes="1" speed="22.22" shape="4112.38,5108.06 3759.32,4936.82 3713.69,4914.77 3667.69,4891.16 3637.13,4874.71 3615.82,4862.28 3595.99,4849.66 3569.14,4832.21 3361.62,4689.16 3174.96,4559.76 3095.19,4505.69 3066.91,4487.02 3046.53,4474.75 2983.65,4439.98 2981.03,4438.42" disallow="tram rail_urban rail rail_electric rail_fast ship">
        <param key="ref" value="D 4" />
    </edge>
    <edge id="-1115651168#1" from="601055896" to="601055580" priority="11" type="highway.secondary" numLanes="1" speed="22.22" shape="4478.77,5285.72 4454.83,5273.95 4270.89,5184.97 4112.38,5108.06" disallow="tram rail_urban rail rail_electric rail_fast ship">
        <param key="ref" value="D 4" />
    </edge>
    <edge id="-1122667069#0" from="12271837630" to="597354815" priority="4" type="highway.unclassified" numLanes="1" speed="13.89" disallow="tram rail_urban rail rail_electric rail_fast ship" />
    <edge id="-1154797833" from="6874241319" to="10013337799" priority="3" type="highway.residential" numLanes="1" speed="13.89" disallow="tram rail_urban rail rail_electric rail_fast ship" />
    <edge id="-1196379287#0" from="3811001392" to="597434964" priority="3" type="highway.residential" numLanes="1" speed="13.89" disallow="tram rail_urban rail rail_electric rail_fast ship" />
    <edge id="-1196379287#1" from="601054330" to="3811001392" priority="3" type="highway.residential" numLanes="1" speed="13.89" shape="4271.33,2671.05 4247.35,2630.99 4210.72,2548.10" disallow="tram rail_urban rail rail_electric rail_fast ship" />
    <edge id="-1196379287#2" from="597434977" to="601054330" priority="3" type="highway.residential" numLanes="1" speed="13.89" shape="4327.05,2766.24 4314.25,2743.44 4271.33,2671.05" disallow="tram rail_urban rail rail_electric rail_fast ship" />
    <edge id="-1196379288" from="260713590" to="597434964" priority="11" type="highway.secondary" numLanes="1" speed="13.89" shape="4503.19,2414.06 4216.49,2537.94 4207.87,2541.66" disallow="tram rail_urban rail rail_electric rail_fast ship">
        <param key="ref" value="D 64" />
    </edge>
    <edge id="-1196379289#0" from="3055817813" to="597434977" priority="3" type="highway.residential" numLanes="1" speed="13.89" shape="4357.57,2811.91 4353.97,2806.32 4334.49,2778.56 4327.05,2766.24" disallow="tram rail_urban rail rail_electric rail_fast ship" />
    <edge id="-1196379289#1" from="597434980" to="3055817813" priority="3" type="highway.residential" numLanes="1" speed="13.89" shape="4415.47,2909.01 4386.71,2851.88 4372.86,2831.60 4357.57,2811.91" disallow="tram rail_urban rail rail_electric rail_fast ship" />
    <edge id="-1196379290" from="3810995808" to="597433052" priority="3" type="highway.residential" numLanes="1" speed="13.89" disallow="tram rail_urban rail rail_electric rail_fast ship" />
    <edge id="-1196379293#0" from="6227231796" to="597428457" priority="3" type="highway.residential" numLanes="1" speed="13.89" shape="4146.83,3419.30 4140.74,3252.18 4138.27,3229.60" disallow="tram rail_urban rail rail_electric rail_fast ship" />
    <edge id="-1196379293#1" from="597322770" to="6227231796" priority="3" type="highway.residential" numLanes="1" speed="13.89" shape="4139.05,3457.64 4144.54,3453.69 4147.00,3450.68 4148.08,3447.03 4147.58,3435.95 4146.83,3419.30" disallow="tram rail_urban rail rail_electric rail_fast ship" />
    <edge id="-1196379294#0" from="6874241291" to="340209602" priority="4" type="highway.unclassified" numLanes="1" speed="13.89" disallow="tram rail_urban rail rail_electric rail_fast ship" />
    <edge id="-1196379294#1" from="6584498283" to="6874241291" priority="4" type="highway.unclassified" numLanes="1" speed="13.89" shape="2944.68,3150.76 2940.91,3145.23 2932.33,3129.72 2925.99,3115.87 2923.41,3110.25 2917.56,3103.02" disallow="tram rail_urban rail rail_electric rail_fast ship" />
    <edge id="-1196379294#2" from="597340152" to="6584498283" priority="4" type="highway.unclassified" numLanes="1" speed="13.89" disallow="tram rail_urban rail rail_electric rail_fast ship" />
    <edge id="-1196379294#3" from="6874241285" to="597340152" priority="4" type="highway.unclassified" numLanes="1" speed="13.89" disallow="tram rail_urban rail rail_electric rail_fast ship" />
    <edge id="-1196379294#4" from="3506876694" to="6874241285" priority="4" type="highway.unclassified" numLanes="1" speed="13.89" disallow="tram rail_urban rail rail_electric rail_fast ship" />
    <edge id="-1196379294#5" from="597340153" to="3506876694" priority="4" type="highway.unclassified" numLanes="1" speed="13.89" disallow="tram rail_urban rail rail_electric rail_fast ship" />
    <edge id="-1196379294#6" from="7892845744" to="597340153" priority="4" type="highway.unclassified" numLanes="1" speed="13.89" disallow="tram rail_urban rail rail_electric rail_fast ship" />
    <edge id="-1196379294#7" from="3810982738" to="7892845744" priority="4" type="highway.unclassified" numLanes="1" speed="13.89" shape="3015.88,3334.53 2997.15,3322.42 2995.48,3321.03" disallow="tram rail_urban rail rail_electric rail_fast ship" />
    <edge id="-1196379294#8" from="12271837602" to="3810982738" priority="4" type="highway.unclassified" numLanes="1" speed="13.89" shape="3073.90,3372.32 3057.80,3361.72 3015.88,3334.53" disallow="tram rail_urban rail rail_electric rail_fast ship" />
    <edge id="-1196379294#9" from="597340154" to="12271837602" priority="4" type="highway.unclassified" numLanes="1" speed="13.89" shape="3093.75,3385.57 3090.04,3383.01 3077.32,3374.60 3073.90,3372.32" disallow="tram rail_urban rail rail_electric rail_fast ship" />
    <edge id="-1196379295" from="597340156" to="12271837630" priority="4" type="highway.unclassified" numLanes="1" speed="13.89" shape="3613.42,3722.19 3610.16,3724.43 3603.03,3729.77 3592.29,3732.60 3538.57,3739.22 3532.20,3741.71 3523.59,3747.36 3378.67,3867.18 3373.36,3871.87" disallow="tram rail_urban rail rail_electric rail_fast ship" />
    <edge id="-1196379298#0" from="12433233818" to="7294776656" priority="12" type="highway.primary" numLanes="1" speed="13.89" shape="3740.99,2875.77 3738.80,2868.91 3722.03,2822.55 3711.83,2796.32" disallow="tram rail_urban rail rail_electric rail_fast ship">
        <param key="ref" value="D 922" />
    </edge>
    <edge id="-1196379298#1" from="3497720401" to="12433233818" priority="12" type="highway.primary" numLanes="1" speed="13.89" shape="3769.32,2964.59 3766.63,2956.18 3740.99,2875.77" disallow="tram rail_urban rail rail_electric rail_fast ship">
        <param key="ref" value="D 922" />
    </edge>
    <edge id="-1196379298#2" from="597433039" to="3497720401" priority="12" type="highway.primary" numLanes="1" speed="13.89" shape="3783.04,3007.62 3779.25,2995.73 3769.32,2964.59" disallow="tram rail_urban rail rail_electric rail_fast ship">
        <param key="ref" value="D 922" />
    </edge>
    <edge id="-1217888955#0" from="601056249" to="601056248" priority="3" type="highway.residential" numLanes="1" speed="13.89" disallow="tram rail_urban rail rail_electric rail_fast ship" />
    <edge id="-1217888955#1" from="601056267" to="601056249" priority="3" type="highway.residential" numLanes="1" speed="13.89" shape="4967.16,6307.81 4983.23,6296.92 4997.11,6283.37 5000.00,6279.02" disallow="tram rail_urban rail rail_electric rail_fast ship" />
    <edge id="-1217888956#0" from="2244648594" to="601056246" priority="3" type="highway.residential" numLanes="1" speed="13.89" shape="5005.51,6241.04 5007.41,6225.13 5008.90,6217.80" disallow="tram rail_urban rail rail_electric rail_fast ship" />
    <edge id="-1217888956#1" from="601056248" to="2244648594" priority="3" type="highway.residential" numLanes="1" speed="13.89" disallow="tram rail_urban rail rail_electric rail_fast ship" />
    <edge id="-1251235230#0" from="601054993" to="601055001" priority="4" type="highway.unclassified" numLanes="1" speed="13.89" disallow="tram rail_urban rail rail_electric rail_fast ship" />
    <edge id="-1251235230#1" from="12105194518" to="601054993" priority="4" type="highway.unclassified" numLanes="1" speed="13.89" disallow="tram rail_urban rail rail_electric rail_fast ship" />
    <edge id="-1251235230#2" from="12105194530" to="12105194518" priority="4" type="highway.unclassified" numLanes="1" speed="13.89" shape="5369.91,2437.06 5361.25,2438.59 5310.03,2447.67" disallow="tram rail_urban rail rail_electric rail_fast ship" />
    <edge id="-1251235230#3" from="12105194543" to="12105194530" priority="4" type="highway.unclassified" numLanes="1" speed="13.89" disallow="tram rail_urban rail rail_electric rail_fast ship" />
    <edge id="-1251235230#4" from="597606931" to="12105194543" priority="4" type="highway.unclassified" numLanes="1" speed="13.89" disallow="tram rail_urban rail rail_electric rail_fast ship" />
    <edge id="-1251272617#0" from="601054132" to="601054129" priority="4" type="highway.unclassified" numLanes="1" speed="5.56" disallow="tram rail_urban rail rail_electric rail_fast ship" />
    <edge id="-1251272617#1" from="11364685484" to="601054132" priority="4" type="highway.unclassified" numLanes="1" speed="5.56" disallow="tram rail_urban rail rail_electric rail_fast ship" />
    <edge id="-1251272617#2" from="601054133" to="11364685484" priority="4" type="highway.unclassified" numLanes="1" speed="5.56" disallow="tram rail_urban rail rail_electric rail_fast ship" />
    <edge id="-1251272617#3" from="601054134" to="601054133" priority="4" type="highway.unclassified" numLanes="1" speed="5.56" disallow="tram rail_urban rail rail_electric rail_fast ship" />
    <edge id="-1257194765#0" from="592607319" to="592607254" priority="3" type="highway.residential" numLanes="1" speed="13.89" shape="2406.56,2427.07 2401.20,2421.15 2397.09,2410.68" disallow="tram rail_urban rail rail_electric rail_fast ship" />
    <edge id="-1257194765#1" from="592607291" to="592607319" priority="3" type="highway.residential" numLanes="1" speed="13.89" shape="2415.01,2411.16 2411.27,2420.89 2406.56,2427.07" disallow="tram rail_urban rail rail_electric rail_fast ship" />
    <edge id="-1257194766#0" from="592607313" to="592607291" priority="3" type="highway.residential" numLanes="1" speed="13.89" shape="2443.81,2409.30 2435.28,2411.13 2415.01,2411.16" disallow="tram rail_urban rail rail_electric rail_fast ship" />
    <edge id="-1257194766#1" from="10013267484" to="592607313" priority="3" type="highway.residential" numLanes="1" speed="13.89" shape="2457.81,2406.90 2453.68,2407.18 2443.81,2409.30" disallow="tram rail_urban rail rail_electric rail_fast ship" />
    <edge id="-1257224445" from="11688424011" to="11688424008" priority="4" type="highway.unclassified" numLanes="1" speed="13.89" shape="3163.24,1836.11 3167.81,1834.48 3172.15,1830.84 3174.60,1826.13" disallow="tram rail_urban rail rail_electric rail_fast ship" />
    <edge id="-126057662#1" from="282407122" to="588948292" priority="3" type="highway.residential" numLanes="1" speed="13.89" shape="1764.10,884.70 1767.39,884.53 1770.47,883.91 1773.84,883.03 2007.28,762.61 2015.20,756.89" disallow="tram rail_urban rail rail_electric rail_fast ship" />
    <edge id="-1307131345#0" from="12105194557" to="597606931" priority="4" type="highway.unclassified" numLanes="1" speed="13.89" disallow="tram rail_urban rail rail_electric rail_fast ship" />
    <edge id="-1307131345#1" from="5282130507" to="12105194557" priority="4" type="highway.unclassified" numLanes="1" speed="13.89" disallow="tram rail_urban rail rail_electric rail_fast ship" />
    <edge id="-1307131345#2" from="2197538223" to="5282130507" priority="4" type="highway.unclassified" numLanes="1" speed="13.89" disallow="tram rail_urban rail rail_electric rail_fast ship" />
    <edge id="-1307131345#3" from="2197538214" to="2197538223" priority="4" type="highway.unclassified" numLanes="1" speed="13.89" disallow="tram rail_urban rail rail_electric rail_fast ship" />
    <edge id="-1307131358#0" from="2197538183" to="601054992" priority="11" type="highway.secondary" numLanes="1" speed="19.44" disallow="tram rail_urban rail rail_electric rail_fast ship">
        <param key="ref" value="D 64" />
    </edge>
    <edge id="-1307131358#1" from="5282130494" to="2197538183" priority="11" type="highway.secondary" numLanes="1" speed="19.44" disallow="tram rail_urban rail rail_electric rail_fast ship">
        <param key="ref" value="D 64" />
    </edge>
    <edge id="-1307131358#2" from="601054983" to="5282130494" priority="11" type="highway.secondary" numLanes="1" speed="19.44" disallow="tram rail_urban rail rail_electric rail_fast ship">
        <param key="ref" value="D 64" />
    </edge>
    <edge id="-1316961383" from="589082922" to="589082884" priority="3" type="highway.residential" numLanes="1" speed="8.33" shape="924.57,1584.56 893.71,1608.97 882.93,1617.48 863.59,1635.43 851.36,1652.21 833.68,1679.91 827.06,1693.25 822.77,1704.44 814.73,1729.41 809.26,1754.53 807.11,1767.96 806.31,1778.19 807.44,1798.40 810.21,1812.82 819.51,1846.30 829.45,1875.00 841.13,1900.06 854.88,1927.42" disallow="tram rail_urban rail rail_electric rail_fast ship" />
    <edge id="-1317156109" from="592607289" to="10013267484" priority="3" type="highway.residential" numLanes="1" speed="13.89" disallow="tram rail_urban rail rail_electric rail_fast ship" />
    <edge id="-1323101399" from="3061319730" to="601055896" priority="11" type="highway.secondary" numLanes="1" speed="22.22" shape="4571.28,5342.75 4536.48,5318.28 4512.90,5303.81 4478.77,5285.72" disallow="tram rail_urban rail rail_electric rail_fast ship">
        <param key="ref" value="D 4" />
    </edge>
    <edge id="-1339243563" from="12388282658" to="12388282656" priority="3" type="highway.residential" numLanes="1" speed="13.89" disallow="tram rail_urban rail rail_electric rail_fast ship" />
    <edge id="-1339243564" from="12388282656" to="12388282649" priority="3" type="highway.residential" numLanes="1" speed="13.89" shape="3155.75,4048.97 3154.42,4046.65 3152.30,4045.01 3149.71,4044.30 3147.04,4044.63 3144.70,4045.95 3143.06,4048.07 3142.35,4050.65 3142.68,4053.31 3144.01,4055.63" disallow="tram rail_urban rail rail_electric rail_fast ship" />
    <edge id="-1349632030" from="12388282649" to="12388282656" priority="3" type="highway.residential" numLanes="1" speed="13.89" shape="3144.01,4055.63 3146.13,4057.28 3148.72,4058.00 3151.39,4057.66 3153.72,4056.33 3155.37,4054.21 3156.08,4051.64 3155.75,4048.97" disallow="tram rail_urban rail rail_electric rail_fast ship" />
    <edge id="-1363608708#0" from="589045459" to="589045432" priority="3" type="highway.residential" numLanes="1" speed="8.33" shape="772.87,1231.40 759.33,1232.22 699.31,1242.20" disallow="tram rail_urban rail rail_electric rail_fast ship" />
    <edge id="-1363608708#1" from="589045455" to="589045459" priority="3" type="highway.residential" numLanes="1" speed="8.33" shape="885.86,1221.06 872.23,1223.35 837.82,1227.37 811.30,1229.06 772.87,1231.40" disallow="tram rail_urban rail rail_electric rail_fast ship" />
    <edge id="-1363927159#0" from="574806543" to="417129130" priority="11" type="highway.secondary" numLanes="1" speed="22.22" shape="1619.47,3285.40 1565.93,3337.23 1199.10,3692.85" disallow="tram rail_urban rail rail_electric rail_fast ship">
        <param key="ref" value="D 64" />
    </edge>
    <edge id="-1363927159#1" from="3442624349" to="574806543" priority="11" type="highway.secondary" numLanes="1" speed="22.22" disallow="tram rail_urban rail rail_electric rail_fast ship">
        <param key="ref" value="D 64" />
    </edge>
    <edge id="-138059339#0" from="1513675876" to="1513675915" priority="4" type="highway.unclassified" numLanes="1" speed="13.89" shape="5146.92,3997.66 5154.94,4016.71 5153.43,4029.53" disallow="tram rail_urban rail rail_electric rail_fast ship" />
    <edge id="-138059339#1" from="1513675913" to="1513675876" priority="4" type="highway.unclassified" numLanes="1" speed="13.89" disallow="tram rail_urban rail rail_electric rail_fast ship" />
    <edge id="-138059339#2" from="1513675928" to="1513675913" priority="4" type="highway.unclassified" numLanes="1" speed="13.89" shape="5198.28,3966.70 5187.30,3964.87 5167.75,3967.01 5153.39,3979.64 5150.22,3988.46" disallow="tram rail_urban rail rail_electric rail_fast ship" />
    <edge id="-138059339#3" from="1513675938" to="1513675928" priority="4" type="highway.unclassified" numLanes="1" speed="13.89" shape="5216.74,4012.58 5217.82,4002.42 5216.10,3987.60 5209.31,3974.01 5198.28,3966.70" disallow="tram rail_urban rail rail_electric rail_fast ship" />
    <edge id="-138059339#4" from="601055361" to="1513675938" priority="4" type="highway.unclassified" numLanes="1" speed="13.89" shape="5186.91,4040.94 5191.86,4028.83 5204.31,4022.45 5216.74,4012.58" disallow="tram rail_urban rail rail_electric rail_fast ship" />
    <edge id="-167253310" from="1786580283" to="1786580278" priority="3" type="highway.residential" numLanes="1" speed="13.89" shape="3786.35,3546.23 3880.82,3579.35 3887.30,3582.34 3891.90,3586.81 3895.47,3594.50 3907.17,3682.92 3908.52,3687.99" disallow="tram rail_urban rail rail_electric rail_fast ship" />
    <edge id="-167253311#0" from="1786580286" to="5939700877" priority="4" type="highway.unclassified" numLanes="1" speed="13.89" shape="3712.82,3572.75 3728.03,3599.19 3739.86,3617.12 3748.77,3621.42" disallow="tram rail_urban rail rail_electric rail_fast ship" />
    <edge id="-167253311#1" from="1786580290" to="1786580286" priority="4" type="highway.unclassified" numLanes="1" speed="13.89" shape="3734.30,3548.13 3717.17,3557.87 3712.75,3565.72 3712.82,3572.75" disallow="tram rail_urban rail rail_electric rail_fast ship" />
    <edge id="-167253313#0" from="1786580280" to="1786580290" priority="3" type="highway.residential" numLanes="1" speed="13.89" disallow="tram rail_urban rail rail_electric rail_fast ship" />
    <edge id="-167253313#1" from="2592054806" to="1786580280" priority="3" type="highway.residential" numLanes="1" speed="13.89" disallow="tram rail_urban rail rail_electric rail_fast ship" />
    <edge id="-167253313#2" from="6705289307" to="2592054806" priority="3" type="highway.residential" numLanes="1" speed="13.89" disallow="tram rail_urban rail rail_electric rail_fast ship" />
    <edge id="-167253313#3" from="5939702733" to="6705289307" priority="3" type="highway.residential" numLanes="1" speed="13.89" disallow="tram rail_urban rail rail_electric rail_fast ship" />
    <edge id="-167253313#4" from="12219042276" to="5939702733" priority="3" type="highway.residential" numLanes="1" speed="13.89" disallow="tram rail_urban rail rail_electric rail_fast ship" />
    <edge id="-167253313#5" from="5939702743" to="12219042276" priority="3" type="highway.residential" numLanes="1" speed="13.89" shape="3712.34,3349.83 3702.38,3355.04 3709.35,3386.39 3709.10,3400.44 3717.53,3421.24 3720.43,3435.77" disallow="tram rail_urban rail rail_electric rail_fast ship" />
    <edge id="-167253313#6" from="5939702746" to="5939702743" priority="3" type="highway.residential" numLanes="1" speed="13.89" disallow="tram rail_urban rail rail_electric rail_fast ship" />
    <edge id="-167253313#7" from="1786580287" to="5939702746" priority="3" type="highway.residential" numLanes="1" speed="13.89" disallow="tram rail_urban rail rail_electric rail_fast ship" />
    <edge id="-169197742" from="1803604147" to="2009854745" priority="3" type="highway.residential" numLanes="1" speed="13.89" shape="2529.54,2663.34 2524.67,2571.45 2514.27,2380.39 2509.12,2207.53 2503.49,2081.09 2501.15,1989.24 2508.76,1863.34 2512.52,1830.63 2512.40,1824.47 2509.73,1818.04" disallow="tram rail_urban rail rail_electric rail_fast ship" />
    <edge id="-169197746#0" from="590829155" to="1803604107" priority="3" type="highway.residential" numLanes="1" speed="13.89" disallow="tram rail_urban rail rail_electric rail_fast ship" />
    <edge id="-169197746#1" from="282407181" to="590829155" priority="3" type="highway.residential" numLanes="1" speed="13.89" shape="2564.92,1191.86 2558.78,1189.20 2552.11,1188.82 2313.37,1199.97" disallow="tram rail_urban rail rail_electric rail_fast ship" />
    <edge id="-174965075" from="6531634735" to="1856035581" priority="3" type="highway.residential" numLanes="1" speed="13.89" disallow="tram rail_urban rail rail_electric rail_fast ship" />
    <edge id="-174965081" from="3170334892" to="1803604147" priority="4" type="highway.unclassified" numLanes="1" speed="13.89" shape="2493.03,2665.88 2508.21,2664.79 2520.69,2664.29 2529.54,2663.34" disallow="tram rail_urban rail rail_electric rail_fast ship" />
    <edge id="-174967799#0" from="3810982678" to="1856066445" priority="11" type="highway.secondary" numLanes="1" speed="13.89" shape="2624.64,3099.77 2627.23,3098.82 2655.89,3087.07" disallow="tram rail_urban rail rail_electric rail_fast ship">
        <param key="ref" value="D 64" />
    </edge>
    <edge id="-174967799#1" from="340209609" to="3810982678" priority="11" type="highway.secondary" numLanes="1" speed="13.89" disallow="tram rail_urban rail rail_electric rail_fast ship">
        <param key="ref" value="D 64" />
    </edge>
    <edge id="-174967799#2" from="4004931026" to="340209609" priority="11" type="highway.secondary" numLanes="1" speed="13.89" disallow="tram rail_urban rail rail_electric rail_fast ship">
        <param key="ref" value="D 64" />
    </edge>
    <edge id="-174967799#3" from="1856066465" to="4004931026" priority="11" type="highway.secondary" numLanes="1" speed="13.89" disallow="tram rail_urban rail rail_electric rail_fast ship">
        <param key="ref" value="D 64" />
    </edge>
    <edge id="-174967799#4" from="8569349359" to="1856066465" priority="11" type="highway.secondary" numLanes="1" speed="13.89" disallow="tram rail_urban rail rail_electric rail_fast ship">
        <param key="ref" value="D 64" />
    </edge>
    <edge id="-190361832#0" from="10072577724" to="1398460280" priority="3" type="highway.residential" numLanes="1" speed="13.89" shape="2095.19,697.98 2102.12,688.71 2106.64,681.52" disallow="tram rail_urban rail rail_electric rail_fast ship" />
    <edge id="-190361832#1" from="2009797739" to="10072577724" priority="3" type="highway.residential" numLanes="1" speed="13.89" shape="2084.79,713.88 2089.93,705.46 2095.19,697.98" disallow="tram rail_urban rail rail_electric rail_fast ship" />