<edges xmlns:xsi="http://www.w3.org/2001/XMLSchema-instance" version="1.16" xsi:noNamespaceSchemaLocation="http://sumo.dlr.de/xsd/edges_file.xsd">
    <location netOffset="-436987.65,-5435291.71" convBoundary="0.00,0.00,10390.91,10772.08" origBoundary="1.932246,49.036644,2.546646,49.164546" projParameter="+proj=utm +zone=31 +ellps=WGS84 +datum=WGS84 +units=m +no_defs" />

    <edge id="-1028172020#0" from="7155169892" to="4249196989" priority="3" type="highway.residential" numLanes="1" speed="13.89" disallow="tram rail_urban rail rail_electric rail_fast ship" />
    <edge id="-1028172020#1" from="2244693553" to="7155169892" priority="3" type="highway.residential" numLanes="1" speed="13.89" disallow="tram rail_urban rail rail_electric rail_fast ship" />
    <edge id="-1054281667#0" from="597457863" to="601054796" priority="4" type="highway.unclassified" numLanes="1" speed="13.89" disallow="tram rail_urban rail rail_electric rail_fast ship" />
    <edge id="-1054281667#1" from="597457876" to="597457863" priority="4" type="highway.unclassified" numLanes="1" speed="13.89" disallow="tram rail_urban rail rail_electric rail_fast ship" />
    <edge id="-1054281667#2" from="597366605" to="597457876" priority="4" type="highway.unclassified" numLanes="1" speed="13.89" disallow="tram rail_urban rail rail_electric rail_fast ship" />
    <edge id="-1054281668#0" from="10013337773" to="6874241321" priority="4" type="highway.unclassified" numLanes="1" speed="13.89" disallow="tram rail_urban rail rail_electric rail_fast ship" />
    <edge id="-1054281668#1" from="8951202390" to="10013337773" priority="4" type="highway.unclassified" numLanes="1" speed="13.89" disallow="tram rail_urban rail rail_electric rail_fast ship" />
    <edge id="-1054281668#2" from="3536963729" to="8951202390" priority="4" type="highway.unclassified" numLanes="1" speed="13.89" disallow="tram rail_urban rail rail_electric rail_fast ship" />
    <edge id="-1054281668#3" from="597354815" to="3536963729" priority="4" type="highway.unclassified" numLanes="1" speed="13.89" shape="6085.79,5876.22 6091.75,5885.64 6158.02,5975.01" disallow="tram rail_urban rail rail_electric rail_fast ship" />
    <edge id="-1054281669" from="6874241311" to="6874241318" priority="3" type="highway.residential" numLanes="1" speed="13.89" disallow="tram rail_urban rail rail_electric rail_fast ship" />
    <edge id="-1060223827#0" from="601055964" to="356988095" priority="4" type="highway.unclassified" numLanes="1" speed="13.89" shape="7237.27,7980.18 7228.46,7926.88 7278.43,7855.97 7288.06,7852.80" disallow="tram rail_urban rail rail_electric rail_fast ship" />
    <edge id="-1060223827#1" from="601055965" to="601055964" priority="4" type="highway.unclassified" numLanes="1" speed="13.89" shape="7098.50,8176.86 7124.95,8142.00 7175.39,8067.28 7227.20,8013.77 7237.27,7980.18" disallow="tram rail_urban rail rail_electric rail_fast ship" />
    <edge id="-1060223827#2" from="601055969" to="601055965" priority="4" type="highway.unclassified" numLanes="1" speed="13.89" disallow="tram rail_urban rail rail_electric rail_fast ship" />
    <edge id="-1060223827#3" from="601056049" to="601055969" priority="4" type="highway.unclassified" numLanes="1" speed="13.89" shape="6928.24,8389.01 6931.26,8387.81 6981.79,8328.42 7010.35,8293.01 7094.37,8182.29" disallow="tram rail_urban rail rail_electric rail_fast ship" />
    <edge id="-1061421029" from="590829142" to="9751933383" priority="3" type="highway.residential" numLanes="1" speed="13.89" shape="4798.71,3109.69 4804.80,3179.26 4805.05,3184.44" disallow="tram rail_urban rail rail_electric rail_fast ship" />
    <edge id="-1061421030" from="9751933393" to="9751933402" priority="3" type="highway.residential" numLanes="1" speed="13.89" shape="4887.90,3102.43 4869.87,3045.22 4861.96,3028.71 4858.60,3025.52 4853.00,3023.23 4844.77,3023.62 4825.82,3027.33 4798.31,3027.52 4772.93,3025.54 4644.60,3032.37" disallow="tram rail_urban rail rail_electric rail_fast ship" />
    <edge id="-1061421042" from="9752001965" to="9752001968" priority="3" type="highway.residential" numLanes="1" speed="13.89" shape="6817.64,5470.71 6791.32,5480.55 6784.77,5491.45 6755.73,5501.76" disallow="tram rail_urban rail rail_electric rail_fast ship" />
    <edge id="-1086983789#0" from="7164665698" to="597428424" priority="4" type="highway.unclassified" numLanes="1" speed="13.89" disallow="tram rail_urban rail rail_electric rail_fast ship" />
    <edge id="-1086983789#1" from="7164665688" to="7164665698" priority="4" type="highway.unclassified" numLanes="1" speed="13.89" disallow="tram rail_urban rail rail_electric rail_fast ship" />
    <edge id="-1086983789#2" from="3811001393" to="7164665688" priority="4" type="highway.unclassified" numLanes="1" speed="13.89" disallow="tram rail_urban rail rail_electric rail_fast ship" />
    <edge id="-1086983789#3" from="597428422" to="3811001393" priority="4" type="highway.unclassified" numLanes="1" speed="13.89" shape="6398.38,4446.62 6392.29,4443.29 6386.79,4434.23" disallow="tram rail_urban rail rail_electric rail_fast ship" />
    <edge id="-1086983790#0" from="2469277859" to="597428424" priority="3" type="highway.residential" numLanes="1" speed="13.89" shape="6335.92,4067.74 6316.40,4115.42 6308.49,4133.03 6285.59,4182.10 6234.07,4270.83" disallow="tram rail_urban rail rail_electric rail_fast ship" />
    <edge id="-1086983790#1" from="597440983" to="2469277859" priority="3" type="highway.residential" numLanes="1" speed="13.89" disallow="tram rail_urban rail rail_electric rail_fast ship" />
    <edge id="-1091204826#0" from="589000028" to="589000037" priority="3" type="highway.residential" numLanes="1" speed="8.33" shape="4282.74,2988.47 4286.43,2992.21 4288.68,2995.16 4288.93,2997.36 4284.77,3012.25 4284.58,3016.20 4283.77,3025.80" disallow="tram rail_urban rail rail_electric rail_fast ship" />
    <edge id="-1091204826#1" from="2843791000" to="589000028" priority="3" type="highway.residential" numLanes="1" speed="8.33" shape="4323.25,2920.85 4314.59,2923.85 4307.66,2926.77 4302.13,2930.70 4297.98,2936.35 4293.47,2945.40 4285.86,2963.94 4282.97,2976.21 4282.72,2984.64 4282.74,2988.47" disallow="tram rail_urban rail rail_electric rail_fast ship" />
    <edge id="-1100568712#0" from="588669455" to="2009797704" priority="4" type="highway.unclassified" numLanes="1" speed="13.89" disallow="tram rail_urban rail rail_electric rail_fast ship" />
    <edge id="-1100568712#1" from="1856035570" to="588669455" priority="4" type="highway.unclassified" numLanes="1" speed="13.89" disallow="tram rail_urban rail rail_electric rail_fast ship" />
    <edge id="-1104948295#0" from="3912677464" to="322702423" priority="3" type="highway.residential" numLanes="1" speed="13.89" disallow="tram rail_urban rail rail_electric rail_fast ship" />
    <edge id="-1104948295#1" from="5763007181" to="3912677464" priority="3" type="highway.residential" numLanes="1" speed="13.89" disallow="tram rail_urban rail rail_electric rail_fast ship" />
    <edge id="-1104948295#2" from="2711131654" to="5763007181" priority="3" type="highway.residential" numLanes="1" speed="13.89" disallow="tram rail_urban rail rail_electric rail_fast ship" distance="-42947.00" />
    <edge id="-1104948295#3" from="10064195698" to="2711131654" priority="3" type="highway.residential" numLanes="1" speed="13.89" disallow="tram rail_urban rail rail_electric rail_fast ship" />
    <edge id="-1115651168#0" from="601055580" to="3495375626" priority="11" type="highway.secondary" numLanes="1" speed="22.22" shape="6827.40,7109.98 6474.34,6938.74 6428.71,6916.69 6382.71,6893.08 6352.15,6876.63 6330.84,6864.20 6311.01,6851.58 6284.16,6834.13 6076.64,6691.08 5889.98,6561.68 5810.21,6507.60 5781.93,6488.94 5761.55,6476.67 5698.67,6441.90 5696.05,6440.33" disallow="tram rail_urban rail rail_electric rail_fast ship">
        <param key="ref" value="D 4" />
    </edge>
    <edge id="-1115651168#1" from="601055896" to="601055580" priority="11" type="highway.secondary" numLanes="1" speed="22.22" shape="7193.79,7287.64 7169.85,7275.87 6985.91,7186.89 6827.40,7109.98" disallow="tram rail_urban rail rail_electric rail_fast ship">
        <param key="ref" value="D 4" />
    </edge>
    <edge id="-1122667069#0" from="12271837630" to="597354815" priority="4" type="highway.unclassified" numLanes="1" speed="13.89" disallow="tram rail_urban rail rail_electric rail_fast ship" />
    <edge id="-1154797833" from="6874241319" to="10013337799" priority="3" type="highway.residential" numLanes="1" speed="13.89" disallow="tram rail_urban rail rail_electric rail_fast ship" />
    <edge id="-1196379287#0" from="3811001392" to="597434964" priority="3" type="highway.residential" numLanes="1" speed="13.89" disallow="tram rail_urban rail rail_electric rail_fast ship" />
    <edge id="-1196379287#1" from="601054330" to="3811001392" priority="3" type="highway.residential" numLanes="1" speed="13.89" shape="6986.36,4672.97 6962.37,4632.91 6925.74,4550.02" disallow="tram rail_urban rail rail_electric rail_fast ship" />
    <edge id="-1196379287#2" from="597434977" to="601054330" priority="3" type="highway.residential" numLanes="1" speed="13.89" shape="7042.07,4768.16 7029.28,4745.36 6986.36,4672.97" disallow="tram rail_urban rail rail_electric rail_fast ship" />
    <edge id="-1196379288" from="260713590" to="597434964" priority="11" type="highway.secondary" numLanes="1" speed="13.89" shape="7218.21,4415.97 6931.51,4539.86 6922.89,4543.58" disallow="tram rail_urban rail rail_electric rail_fast ship">
        <param key="ref" value="D 64" />
    </edge>
    <edge id="-1196379289#0" from="3055817813" to="597434977" priority="3" type="highway.residential" numLanes="1" speed="13.89" shape="7072.59,4813.83 7069.00,4808.24 7049.51,4780.48 7042.07,4768.16" disallow="tram rail_urban rail rail_electric rail_fast ship" />
    <edge id="-1196379289#1" from="597434980" to="3055817813" priority="3" type="highway.residential" numLanes="1" speed="13.89" shape="7130.49,4910.93 7101.73,4853.80 7087.88,4833.52 7072.59,4813.83" disallow="tram rail_urban rail rail_electric rail_fast ship" />
    <edge id="-1196379290" from="3810995808" to="597433052" priority="3" type="highway.residential" numLanes="1" speed="13.89" disallow="tram rail_urban rail rail_electric rail_fast ship" />
    <edge id="-1196379293#0" from="6227231796" to="597428457" priority="3" type="highway.residential" numLanes="1" speed="13.89" shape="6861.85,5421.22 6855.76,5254.10 6853.29,5231.52" disallow="tram rail_urban rail rail_electric rail_fast ship" />
    <edge id="-1196379293#1" from="597322770" to="6227231796" priority="3" type="highway.residential" numLanes="1" speed="13.89" shape="6854.08,5459.56 6859.56,5455.61 6862.02,5452.60 6863.10,5448.95 6862.61,5437.87 6861.85,5421.22" disallow="tram rail_urban rail rail_electric rail_fast ship" />
    <edge id="-1196379294#0" from="6874241291" to="340209602" priority="4" type="highway.unclassified" numLanes="1" speed="13.89" disallow="tram rail_urban rail rail_electric rail_fast ship" />
    <edge id="-1196379294#1" from="6584498283" to="6874241291" priority="4" type="highway.unclassified" numLanes="1" speed="13.89" shape="5659.71,5152.68 5655.93,5147.15 5647.35,5131.64 5641.01,5117.79 5638.43,5112.17 5632.59,5104.94" disallow="tram rail_urban rail rail_electric rail_fast ship" />
    <edge id="-1196379294#2" from="597340152" to="6584498283" priority="4" type="highway.unclassified" numLanes="1" speed="13.89" disallow="tram rail_urban rail rail_electric rail_fast ship" />
    <edge id="-1196379294#3" from="6874241285" to="597340152" priority="4" type="highway.unclassified" numLanes="1" speed="13.89" disallow="tram rail_urban rail rail_electric rail_fast ship" />
    <edge id="-1196379294#4" from="3506876694" to="6874241285" priority="4" type="highway.unclassified" numLanes="1" speed="13.89" disallow="tram rail_urban rail rail_electric rail_fast ship" />
    <edge id="-1196379294#5" from="597340153" to="3506876694" priority="4" type="highway.unclassified" numLanes="1" speed="13.89" disallow="tram rail_urban rail rail_electric rail_fast ship" />
    <edge id="-1196379294#6" from="7892845744" to="597340153" priority="4" type="highway.unclassified" numLanes="1" speed="13.89" disallow="tram rail_urban rail rail_electric rail_fast ship" />
    <edge id="-1196379294#7" from="3810982738" to="7892845744" priority="4" type="highway.unclassified" numLanes="1" speed="13.89" shape="5730.91,5336.45 5712.17,5324.34 5710.50,5322.95" disallow="tram rail_urban rail rail_electric rail_fast ship" />
    <edge id="-1196379294#8" from="12271837602" to="3810982738" priority="4" type="highway.unclassified" numLanes="1" speed="13.89" shape="5788.92,5374.24 5772.82,5363.64 5730.91,5336.45" disallow="tram rail_urban rail rail_electric rail_fast ship" />
    <edge id="-1196379294#9" from="597340154" to="12271837602" priority="4" type="highway.unclassified" numLanes="1" speed="13.89" shape="5808.77,5387.49 5805.06,5384.93 5792.34,5376.52 5788.92,5374.24" disallow="tram rail_urban rail rail_electric rail_fast ship" />
    <edge id="-1196379295" from="597340156" to="12271837630" priority="4" type="highway.unclassified" numLanes="1" speed="13.89" shape="6328.44,5724.11 6325.18,5726.34 6318.05,5731.69 6307.31,5734.52 6253.59,5741.14 6247.22,5743.63 6238.62,5749.28 6093.70,5869.10 6088.38,5873.79" disallow="tram rail_urban rail rail_electric rail_fast ship" />
    <edge id="-1196379298#0" from="12433233818" to="7294776656" priority="12" type="highway.primary" numLanes="1" speed="13.89" shape="6456.01,4877.69 6453.82,4870.83 6437.05,4824.47 6426.85,4798.24" disallow="tram rail_urban rail rail_electric rail_fast ship">
        <param key="ref" value="D 922" />
    </edge>
    <edge id="-1196379298#1" from="3497720401" to="12433233818" priority="12" type="highway.primary" numLanes="1" speed="13.89" shape="6484.34,4966.51 6481.65,4958.10 6456.01,4877.69" disallow="tram rail_urban rail rail_electric rail_fast ship">
        <param key="ref" value="D 922" />
    </edge>
    <edge id="-1196379298#2" from="597433039" to="3497720401" priority="12" type="highway.primary" numLanes="1" speed="13.89" shape="6498.06,5009.54 6494.27,4997.65 6484.34,4966.51" disallow="tram rail_urban rail rail_electric rail_fast ship">
        <param key="ref" value="D 922" />
    </edge>
    <edge id="-1217888955#0" from="601056249" to="601056248" priority="3" type="highway.residential" numLanes="1" speed="13.89" disallow="tram rail_urban rail rail_electric rail_fast ship" />
    <edge id="-1217888955#1" from="601056267" to="601056249" priority="3" type="highway.residential" numLanes="1" speed="13.89" shape="7682.18,8309.73 7698.25,8298.84 7712.13,8285.29 7715.02,8280.94" disallow="tram rail_urban rail rail_electric rail_fast ship" />
    <edge id="-1217888956#0" from="2244648594" to="601056246" priority="3" type="highway.residential" numLanes="1" speed="13.89" shape="7720.53,8242.96 7722.43,8227.05 7723.92,8219.72" disallow="tram rail_urban rail rail_electric rail_fast ship" />
    <edge id="-1217888956#1" from="601056248" to="2244648594" priority="3" type="highway.residential" numLanes="1" speed="13.89" disallow="tram rail_urban rail rail_electric rail_fast ship" />
    <edge id="-1251235230#0" from="601054993" to="601055001" priority="4" type="highway.unclassified" numLanes="1" speed="13.89" disallow="tram rail_urban rail rail_electric rail_fast ship" />
    <edge id="-1251235230#1" from="12105194518" to="601054993" priority="4" type="highway.unclassified" numLanes="1" speed="13.89" disallow="tram rail_urban rail rail_electric rail_fast ship" />
    <edge id="-1251235230#2" from="12105194530" to="12105194518" priority="4" type="highway.unclassified" numLanes="1" speed="13.89" shape="8084.93,4438.97 8076.27,4440.51 8025.06,4449.59" disallow="tram rail_urban rail rail_electric rail_fast ship" />
    <edge id="-1251235230#3" from="12105194543" to="12105194530" priority="4" type="highway.unclassified" numLanes="1" speed="13.89" disallow="tram rail_urban rail rail_electric rail_fast ship" />
    <edge id="-1251235230#4" from="597606931" to="12105194543" priority="4" type="highway.unclassified" numLanes="1" speed="13.89" disallow="tram rail_urban rail rail_electric rail_fast ship" />
    <edge id="-1251272617#0" from="601054132" to="601054129" priority="4" type="highway.unclassified" numLanes="1" speed="5.56" disallow="tram rail_urban rail rail_electric rail_fast ship" />
    <edge id="-1251272617#1" from="11364685484" to="601054132" priority="4" type="highway.unclassified" numLanes="1" speed="5.56" disallow="tram rail_urban rail rail_electric rail_fast ship" />
    <edge id="-1251272617#2" from="601054133" to="11364685484" priority="4" type="highway.unclassified" numLanes="1" speed="5.56" disallow="tram rail_urban rail rail_electric rail_fast ship" />
    <edge id="-1251272617#3" from="601054134" to="601054133" priority="4" type="highway.unclassified" numLanes="1" speed="5.56" disallow="tram rail_urban rail rail_electric rail_fast ship" />
    <edge id="-1257194765#0" from="592607319" to="592607254" priority="3" type="highway.residential" numLanes="1" speed="13.89" shape="5121.59,4428.99 5116.22,4423.07 5112.11,4412.60" disallow="tram rail_urban rail rail_electric rail_fast ship" />
    <edge id="-1257194765#1" from="592607291" to="592607319" priority="3" type="highway.residential" numLanes="1" speed="13.89" shape="5130.03,4413.08 5126.29,4422.81 5121.59,4428.99" disallow="tram rail_urban rail rail_electric rail_fast ship" />
    <edge id="-1257194766#0" from="592607313" to="592607291" priority="3" type="highway.residential" numLanes="1" speed="13.89" shape="5158.83,4411.21 5150.30,4413.05 5130.03,4413.08" disallow="tram rail_urban rail rail_electric rail_fast ship" />
    <edge id="-1257194766#1" from="10013267484" to="592607313" priority="3" type="highway.residential" numLanes="1" speed="13.89" shape="5172.83,4408.82 5168.71,4409.10 5158.83,4411.21" disallow="tram rail_urban rail rail_electric rail_fast ship" />
    <edge id="-1257224445" from="11688424011" to="11688424008" priority="4" type="highway.unclassified" numLanes="1" speed="13.89" shape="5878.26,3838.03 5882.83,3836.39 5887.17,3832.76 5889.62,3828.05" disallow="tram rail_urban rail rail_electric rail_fast ship" />
    <edge id="-126057662#1" from="282407122" to="588948292" priority="3" type="highway.residential" numLanes="1" speed="13.89" shape="4479.12,2886.62 4482.41,2886.45 4485.49,2885.83 4488.86,2884.95 4722.31,2764.53 4730.22,2758.81" disallow="tram rail_urban rail rail_electric rail_fast ship" />
    <edge id="-1307131345#0" from="12105194557" to="597606931" priority="4" type="highway.unclassified" numLanes="1" speed="13.89" disallow="tram rail_urban rail rail_electric rail_fast ship" />
    <edge id="-1307131345#1" from="5282130507" to="12105194557" priority="4" type="highway.unclassified" numLanes="1" speed="13.89" disallow="tram rail_urban rail rail_electric rail_fast ship" />
    <edge id="-1307131345#2" from="2197538223" to="5282130507" priority="4" type="highway.unclassified" numLanes="1" speed="13.89" disallow="tram rail_urban rail rail_electric rail_fast ship" />
    <edge id="-1307131345#3" from="2197538214" to="2197538223" priority="4" type="highway.unclassified" numLanes="1" speed="13.89" disallow="tram rail_urban rail rail_electric rail_fast ship" />
    <edge id="-1307131357#0" from="6372452057" to="601054983" priority="4" type="highway.unclassified" numLanes="1" speed="13.89" disallow="tram rail_urban rail rail_electric rail_fast ship" />
    <edge id="-1307131357#1" from="12105194569" to="6372452057" priority="4" type="highway.unclassified" numLanes="1" speed="13.89" disallow="tram rail_urban rail rail_electric rail_fast ship" />
    <edge id="-1307131358#0" from="2197538183" to="601054992" priority="11" type="highway.secondary" numLanes="1" speed="19.44" disallow="tram rail_urban rail rail_electric rail_fast ship">
        <param key="ref" value="D 64" />
    </edge>
    <edge id="-1307131358#1" from="5282130494" to="2197538183" priority="11" type="highway.secondary" numLanes="1" speed="19.44" disallow="tram rail_urban rail rail_electric rail_fast ship">
        <param key="ref" value="D 64" />
    </edge>
    <edge id="-1307131358#2" from="601054983" to="5282130494" priority="11" type="highway.secondary" numLanes="1" speed="19.44" disallow="tram rail_urban rail rail_electric rail_fast ship">
        <param key="ref" value="D 64" />
    </edge>
    <edge id="-1316961383" from="589082922" to="589082884" priority="3" type="highway.residential" numLanes="1" speed="8.33" shape="3639.59,3586.48 3608.73,3610.89 3597.96,3619.40 3578.61,3637.34 3566.38,3654.13 3548.70,3681.83 3542.08,3695.17 3537.79,3706.36 3529.75,3731.33 3524.28,3756.44 3522.13,3769.88 3521.33,3780.11 3522.46,3800.32 3525.23,3814.74 3534.53,3848.22 3544.47,3876.92 3556.15,3901.98 3569.90,3929.34" disallow="tram rail_urban rail rail_electric rail_fast ship" />
    <edge id="-1317156109" from="592607289" to="10013267484" priority="3" type="highway.residential" numLanes="1" speed="13.89" disallow="tram rail_urban rail rail_electric rail_fast ship" />
    <edge id="-1323101399" from="3061319730" to="601055896" priority="11" type="highway.secondary" numLanes="1" speed="22.22" shape="7286.30,7344.67 7251.51,7320.20 7227.92,7305.72 7193.79,7287.64" disallow="tram rail_urban rail rail_electric rail_fast ship">
        <param key="ref" value="D 4" />
    </edge>
    <edge id="-1339243563" from="12388282658" to="12388282656" priority="3" type="highway.residential" numLanes="1" speed="13.89" disallow="tram rail_urban rail rail_electric rail_fast ship" />
    <edge id="-1339243564" from="12388282656" to="12388282649" priority="3" type="highway.residential" numLanes="1" speed="13.89" shape="5870.77,6050.89 5869.45,6048.57 5867.32,6046.93 5864.73,6046.22 5862.06,6046.55 5859.73,6047.87 5858.08,6049.99 5857.37,6052.57 5857.70,6055.23 5859.03,6057.55" disallow="tram rail_urban rail rail_electric rail_fast ship" />
    <edge id="-1349632030" from="12388282649" to="12388282656" priority="3" type="highway.residential" numLanes="1" speed="13.89" shape="5859.03,6057.55 5861.15,6059.20 5863.74,6059.92 5866.41,6059.58 5868.74,6058.25 5870.39,6056.13 5871.10,6053.56 5870.77,6050.89" disallow="tram rail_urban rail rail_electric rail_fast ship" />
    <edge id="-1363608708#0" from="589045459" to="589045432" priority="3" type="highway.residential" numLanes="1" speed="8.33" shape="3487.89,3233.32 3474.35,3234.14 3414.33,3244.12" disallow="tram rail_urban rail rail_electric rail_fast ship" />
    <edge id="-1363608708#1" from="589045455" to="589045459" priority="3" type="highway.residential" numLanes="1" speed="8.33" shape="3600.88,3222.98 3587.25,3225.27 3552.85,3229.29 3526.33,3230.98 3487.89,3233.32" disallow="tram rail_urban rail rail_electric rail_fast ship" />
    <edge id="-1363927159#0" from="574806543" to="417129130" priority="11" type="highway.secondary" numLanes="1" speed="22.22" shape="4334.49,5287.32 4280.95,5339.14 3914.13,5694.77" disallow="tram rail_urban rail rail_electric rail_fast ship">
        <param key="ref" value="D 64" />
    </edge>
    <edge id="-1363927159#1" from="3442624349" to="574806543" priority="11" type="highway.secondary" numLanes="1" speed="22.22" disallow="tram rail_urban rail rail_electric rail_fast ship">
        <param key="ref" value="D 64" />
    </edge>
    <edge id="-138059339#0" from="1513675876" to="1513675915" priority="4" type="highway.unclassified" numLanes="1" speed="13.89" shape="7861.94,5999.57 7869.96,6018.63 7868.45,6031.45" disallow="tram rail_urban rail rail_electric rail_fast ship" />
    <edge id="-138059339#1" from="1513675913" to="1513675876" priority="4" type="highway.unclassified" numLanes="1" speed="13.89" disallow="tram rail_urban rail rail_electric rail_fast ship" />
    <edge id="-138059339#2" from="1513675928" to="1513675913" priority="4" type="highway.unclassified" numLanes="1" speed="13.89" shape="7913.30,5968.62 7902.32,5966.79 7882.77,5968.93 7868.41,5981.56 7865.25,5990.38" disallow="tram rail_urban rail rail_electric rail_fast ship" />
    <edge id="-138059339#3" from="1513675938" to="1513675928" priority="4" type="highway.unclassified" numLanes="1" speed="13.89" shape="7931.77,6014.50 7932.84,6004.34 7931.12,5989.52 7924.33,5975.93 7913.30,5968.62" disallow="tram rail_urban rail rail_electric rail_fast ship" />
    <edge id="-138059339#4" from="601055361" to="1513675938" priority="4" type="highway.unclassified" numLanes="1" speed="13.89" shape="7901.93,6042.86 7906.88,6030.75 7919.34,6024.37 7931.77,6014.50" disallow="tram rail_urban rail rail_electric rail_fast ship" />
    <edge id="-167253310" from="1786580283" to="1786580278" priority="3" type="highway.residential" numLanes="1" speed="13.89" shape="6501.37,5548.15 6595.85,5581.27 6602.33,5584.26 6606.93,5588.73 6610.49,5596.42 6622.19,5684.84 6623.54,5689.91" disallow="tram rail_urban rail rail_electric rail_fast ship" />
    <edge id="-167253311#0" from="1786580286" to="5939700877" priority="4" type="highway.unclassified" numLanes="1" speed="13.89" shape="6427.85,5574.67 6443.05,5601.11 6454.88,5619.04 6463.79,5623.34" disallow="tram rail_urban rail rail_electric rail_fast ship" />
    <edge id="-167253311#1" from="1786580290" to="1786580286" priority="4" type="highway.unclassified" numLanes="1" speed="13.89" shape="6449.32,5550.05 6432.20,5559.79 6427.77,5567.64 6427.85,5574.67" disallow="tram rail_urban rail rail_electric rail_fast ship" />
    <edge id="-167253313#0" from="1786580280" to="1786580290" priority="3" type="highway.residential" numLanes="1" speed="13.89" disallow="tram rail_urban rail rail_electric rail_fast ship" />
    <edge id="-167253313#1" from="2592054806" to="1786580280" priority="3" type="highway.residential" numLanes="1" speed="13.89" disallow="tram rail_urban rail rail_electric rail_fast ship" />
    <edge id="-167253313#2" from="6705289307" to="2592054806" priority="3" type="highway.residential" numLanes="1" speed="13.89" disallow="tram rail_urban rail rail_electric rail_fast ship" />
    <edge id="-167253313#3" from="5939702733" to="6705289307" priority="3" type="highway.residential" numLanes="1" speed="13.89" disallow="tram rail_urban rail rail_electric rail_fast ship" />
    <edge id="-167253313#4" from="12219042276" to="5939702733" priority="3" type="highway.residential" numLanes="1" speed="13.89" disallow="tram rail_urban rail rail_electric rail_fast ship" />
    <edge id="-167253313#5" from="5939702743" to="12219042276" priority="3" type="highway.residential" numLanes="1" speed="13.89" shape="6427.36,5351.75 6417.40,5356.96 6424.37,5388.30 6424.13,5402.36 6432.56,5423.16 6435.45,5437.69" disallow="tram rail_urban rail rail_electric rail_fast ship" />
    <edge id="-167253313#6" from="5939702746" to="5939702743" priority="3" type="highway.residential" numLanes="1" speed="13.89" disallow="tram rail_urban rail rail_electric rail_fast ship" />
    <edge id="-167253313#7" from="1786580287" to="5939702746" priority="3" type="highway.residential" numLanes="1" speed="13.89" disallow="tram rail_urban rail rail_electric rail_fast ship" />
    <edge id="-169197723" from="260692816" to="1803604173" priority="10" type="highway.tertiary" numLanes="1" speed="22.22" disallow="tram rail_urban rail rail_electric rail_fast ship" />
    <edge id="-169197738" from="3059703171" to="1803604105" priority="12" type="highway.primary" numLanes="1" speed="22.22" shape="9588.81,7423.53 9560.47,7389.84 9521.46,7345.30 9497.43,7321.49 9481.45,7307.54 9452.69,7285.42 9423.20,7265.11 9360.48,7225.22 9282.35,7175.38 9256.61,7158.37 9237.09,7144.88 9212.86,7124.53 9191.23,7104.95 9141.63,7058.96 9048.90,6972.58 8971.09,6900.10 8952.15,6882.18 8938.68,6867.39 8926.08,6852.37 8915.51,6836.41 8906.68,6821.21 8893.99,6794.86" disallow="tram rail_urban rail rail_electric rail_fast ship">
        <param key="ref" value="D 922" />
    </edge>
    <edge id="-169197742" from="1803604147" to="2009854745" priority="3" type="highway.residential" numLanes="1" speed="13.89" shape="5244.56,4665.26 5239.69,4573.37 5229.29,4382.31 5224.14,4209.44 5218.51,4083.01 5216.17,3991.16 5223.78,3865.26 5227.55,3832.55 5227.42,3826.39 5224.76,3819.96" disallow="tram rail_urban rail rail_electric rail_fast ship" />
    <edge id="-169197746#0" from="590829155" to="1803604107" priority="3" type="highway.residential" numLanes="1" speed="13.89" disallow="tram rail_urban rail rail_electric rail_fast ship" />
    <edge id="-169197746#1" from="282407181" to="590829155" priority="3" type="highway.residential" numLanes="1" speed="13.89" shape="5279.94,3193.78 5273.81,3191.12 5267.13,3190.74 5028.39,3201.89" disallow="tram rail_urban rail rail_electric rail_fast ship" />
    <edge id="-174965075" from="6531634735" to="1856035581" priority="3" type="highway.residential" numLanes="1" speed="13.89" disallow="tram rail_urban rail rail_electric rail_fast ship" />
    <edge id="-174965081" from="3170334892" to="1803604147" priority="4" type="highway.unclassified" numLanes="1" speed="13.89" shape="5208.05,4667.80 5223.23,4666.71 5235.71,4666.21 5244.56,4665.26" disallow="tram rail_urban rail rail_electric rail_fast ship" />
    <edge id="-174967799#0" from="3810982678" to="1856066445" priority="11" type="highway.secondary" numLanes="1" speed="13.89" shape="5339.66,5101.69 5342.25,5100.74 5370.91,5088.99" disallow="tram rail_urban rail rail_electric rail_fast ship">
        <param key="ref" value="D 64" />
    </edge>
    <edge id="-174967799#1" from="340209609" to="3810982678" priority="11" type="highway.secondary" numLanes="1" speed="13.89" disallow="tram rail_urban rail rail_electric rail_fast ship">
        <param key="ref" value="D 64" />
    </edge>