<?xml version="1.0" encoding="UTF-8"?>

<!-- generated on 2025-04-09 04:07:55 by Eclipse SUMO netconvert Version 1.19.0
<configuration xmlns:xsi="http://www.w3.org/2001/XMLSchema-instance" xsi:noNamespaceSchemaLocation="http://sumo.dlr.de/xsd/netconvertConfiguration.xsd">

    <input>
        <sumo-net-file value="parmain/parmain.net.xml"/>
    </input>

    <output>
        <plain-output-prefix value="parmain/parmain"/>
    </output>

    <processing>
        <geometry.min-radius.fix.railways value="false"/>
        <geometry.max-grade.fix value="false"/>
        <offset.disable-normalization value="true"/>
        <lefthand value="0"/>
    </processing>

    <tls_building>
        <tls.ignore-internal-junction-jam value="1"/>
    </tls_building>

    <junctions>
        <no-turnarounds value="true"/>
        <junctions.corner-detail value="5"/>
        <junctions.limit-turn-speed value="5.50"/>
        <rectangular-lane-cut value="0"/>
    </junctions>

    <pedestrian>
        <walkingareas value="0"/>
    </pedestrian>

</configuration>
-->

<nodes version="1.16" xmlns:xsi="http://www.w3.org/2001/XMLSchema-instance" xsi:noNamespaceSchemaLocation="http://sumo.dlr.de/xsd/nodes_file.xsd">
    <location netOffset="-436987.65,-5435291.71" convBoundary="0.00,0.00,10390.91,10772.08" origBoundary="1.932246,49.036644,2.546646,49.164546" projParameter="+proj=utm +zone=31 +ellps=WGS84 +datum=WGS84 +units=m +no_defs"/>

    <node id="10013267473" x="5050.19" y="4186.24" type="priority"/>
    <node id="10013267477" x="5038.93" y="4168.50" type="priority"/>
    <node id="10013267478" x="5089.39" y="4532.24" type="right_before_left"/>
    <node id="10013267481" x="5119.12" y="4533.98" type="priority"/>
    <node id="10013267482" x="5163.39" y="4391.16" type="priority"/>
    <node id="10013267484" x="5172.83" y="4408.82" type="priority"/>
    <node id="10013267488" x="5168.42" y="4426.74" type="priority"/>
    <node id="10013267489" x="5154.08" y="4244.18" type="right_before_left"/>
    <node id="10013267490" x="5151.28" y="4210.61" type="priority"/>
    <node id="10013267491" x="5152.52" y="4279.27" type="right_before_left"/>
    <node id="10013267496" x="5156.92" y="4315.09" type="priority"/>
    <node id="10013267497" x="5022.35" y="4324.05" type="right_before_left"/>
    <node id="10013267501" x="5027.92" y="4302.29" type="priority"/>
    <node id="10013267505" x="5073.48" y="4348.01" type="right_before_left"/>
    <node id="10013267506" x="5020.64" y="4324.71" type="right_before_left"/>
    <node id="10013267510" x="5032.94" y="4342.89" type="priority"/>
    <node id="10013267511" x="5038.73" y="4381.82" type="priority"/>
    <node id="10013267514" x="5044.33" y="4416.13" type="priority"/>
    <node id="10013267515" x="5077.41" y="4531.42" type="priority"/>
    <node id="10013313318" x="5078.14" y="4503.71" type="priority"/>
    <node id="10013313319" x="5043.07" y="4479.97" type="priority"/>
    <node id="10013313322" x="5076.95" y="4474.63" type="priority"/>
    <node id="10013336762" x="6202.83" y="6048.83" type="priority"/>
    <node id="10013337772" x="6165.42" y="5999.34" type="dead_end"/>
    <node id="10013337773" x="6210.10" y="6043.33" type="priority"/>
    <node id="10013337779" x="6182.16" y="6041.25" type="priority"/>
    <node id="10013337780" x="6187.61" y="6028.55" type="dead_end"/>
    <node id="10013337783" x="6161.31" y="6056.89" type="dead_end"/>
    <node id="10013337799" x="5922.01" y="6077.89" type="priority"/>
    <node id="10013337801" x="6204.11" y="6082.37" type="priority"/>
    <node id="10013337802" x="6220.64" y="6104.62" type="priority"/>
    <node id="10013337803" x="6232.53" y="6095.66" type="priority"/>
    <node id="10013337804" x="6215.59" y="6073.42" type="priority"/>
    <node id="10013337809" x="6221.83" y="6068.57" type="priority"/>
    <node id="10020096273" x="8700.66" y="7425.69" type="priority"/>
    <node id="10055650120" x="5317.38" y="5181.88" type="priority"/>
    <node id="10055650122" x="5338.93" y="5177.08" type="priority"/>
    <node id="10055650134" x="5357.14" y="5227.86" type="dead_end"/>
    <node id="10055650143" x="5352.03" y="5229.55" type="dead_end"/>
    <node id="10055785046" x="5353.09" y="5276.11" type="priority"/>
    <node id="10055785049" x="5353.76" y="5266.30" type="priority"/>
    <node id="10055785050" x="5358.55" y="5265.48" type="priority"/>
    <node id="10055785051" x="5351.09" y="5266.76" type="right_before_left"/>
    <node id="10055785053" x="5355.57" y="5305.40" type="priority"/>
    <node id="10055785057" x="5345.31" y="5228.49" type="dead_end"/>
    <node id="10055785063" x="5340.02" y="5180.73" type="dead_end"/>
    <node id="10055785065" x="5319.76" y="5196.15" type="priority"/>
    <node id="10055785078" x="5285.59" y="5191.31" type="dead_end"/>
    <node id="10055785093" x="5305.07" y="5120.44" type="priority"/>
    <node id="10055785095" x="5304.75" y="5137.45" type="priority"/>
    <node id="10055785097" x="5326.29" y="5101.07" type="rail_crossing"/>
    <node id="10055785098" x="5330.07" y="5099.74" type="rail_crossing"/>
    <node id="10055785099" x="5334.38" y="5111.72" type="rail_crossing"/>
    <node id="10055785100" x="5330.72" y="5113.55" type="rail_crossing"/>
    <node id="10055785102" x="5324.41" y="5123.70" type="dead_end"/>
    <node id="10055785105" x="5342.89" y="5107.56" type="dead_end"/>
    <node id="10060501718" x="5291.58" y="7313.80" type="priority"/>
    <node id="10060501724" x="5356.92" y="7489.63" type="priority"/>
    <node id="10060501730" x="5536.66" y="7582.30" type="right_before_left"/>
    <node id="10060501732" x="5473.34" y="7524.04" type="priority"/>
    <node id="10060941962" x="7590.00" y="8100.45" type="priority"/>
    <node id="10060941970" x="7797.80" y="8116.49" type="priority"/>
    <node id="10060941974" x="7808.85" y="8182.66" type="priority"/>
    <node id="10060941982" x="7763.32" y="7982.69" type="priority"/>
    <node id="10060941984" x="7744.09" y="7976.98" type="right_before_left"/>
    <node id="10060942001" x="7538.24" y="8139.50" type="priority"/>
    <node id="10060942002" x="7673.15" y="8192.82" type="right_before_left"/>
    <node id="10060942005" x="7723.77" y="8199.88" type="right_before_left"/>
    <node id="10064195647" x="7693.21" y="7533.71" type="dead_end"/>
    <node id="10064195656" x="7675.65" y="7722.23" type="priority"/>
    <node id="10064195657" x="7675.04" y="7706.56" type="priority"/>
    <node id="10064195678" x="7680.30" y="7514.47" type="rail_crossing"/>
    <node id="10064195679" x="7680.55" y="7510.89" type="rail_crossing"/>
    <node id="10064195686" x="7698.36" y="7531.04" type="dead_end"/>
    <node id="10064195698" x="7678.63" y="7502.04" type="priority"/>
    <node id="10064195699" x="7682.01" y="7502.35" type="dead_end"/>
    <node id="10064195700" x="7689.10" y="7507.22" type="dead_end"/>
    <node id="10064195707" x="7717.17" y="7544.53" type="dead_end"/>
    <node id="10064195708" x="7676.58" y="7526.00" type="dead_end"/>
    <node id="10064195709" x="7686.50" y="7530.67" type="dead_end"/>
    <node id="10064195710" x="7694.93" y="7530.22" type="dead_end"/>
    <node id="10064195713" x="7694.56" y="7530.87" type="dead_end"/>
    <node id="10067638259" x="5521.24" y="4785.69" type="priority"/>
    <node id="10072560613" x="4795.80" y="2545.84" type="priority"/>
    <node id="10072577717" x="4802.09" y="2692.14" type="priority"/>
    <node id="10072577721" x="4809.58" y="2684.26" type="dead_end"/>
    <node id="10072577724" x="4810.21" y="2699.90" type="priority"/>
    <node id="10072577730" x="4769.65" y="2738.02" type="priority"/>
    <node id="10072577731" x="4795.40" y="2713.36" type="priority"/>
    <node id="10072577734" x="4786.04" y="2730.79" type="rail_crossing"/>
    <node id="10072577735" x="4783.08" y="2732.85" type="rail_crossing"/>
    <node id="10072577745" x="4775.60" y="2735.83" type="dead_end"/>
    <node id="10072577746" x="4760.07" y="2692.42" type="dead_end"/>
    <node id="10072577749" x="4753.23" y="2695.20" type="right_before_left"/>
    <node id="10072577764" x="4784.88" y="2702.42" type="dead_end"/>
    <node id="10072577765" x="4792.12" y="2699.99" type="dead_end"/>
    <node id="10072577790" x="4783.52" y="2673.19" type="dead_end"/>
    <node id="10072577791" x="4782.70" y="2676.83" type="dead_end"/>
    <node id="10072577793" x="4788.87" y="2689.83" type="dead_end"/>
    <node id="10072577795" x="4784.52" y="2676.26" type="dead_end"/>
    <node id="10072577797" x="4783.93" y="2676.43" type="dead_end"/>
    <node id="10072894458" x="4768.00" y="2654.98" type="dead_end"/>
    <node id="10077641807" x="4817.90" y="2413.15" type="priority"/>
    <node id="10077641808" x="4780.80" y="2424.95" type="right_before_left"/>
    <node id="10077641815" x="4784.61" y="2682.61" type="dead_end"/>
    <node id="10129746198" x="3591.10" y="4332.57" type="priority"/>
    <node id="10129746205" x="3532.27" y="4328.08" type="priority"/>
    <node id="10129746211" x="3570.78" y="4322.48" type="right_before_left"/>
    <node id="10175418671" x="5929.11" y="6057.24" type="dead_end"/>
    <node id="10175418675" x="5899.25" y="6082.37" type="dead_end"/>
    <node id="10175418676" x="5911.18" y="6022.48" type="priority"/>
    <node id="10175418679" x="5921.42" y="6048.59" type="dead_end"/>
    <node id="10175418680" x="5891.38" y="6073.64" type="dead_end"/>
    <node id="10175418681" x="5871.82" y="6090.88" type="priority"/>
    <node id="10175418683" x="6195.25" y="6089.26" type="priority"/>
    <node id="10175418685" x="6207.91" y="6109.29" type="priority"/>
    <node id="10213771716" x="5351.80" y="5228.13" type="dead_end"/>
    <node id="10275649469" x="8614.84" y="8452.77" type="priority"/>
    <node id="10275649473" x="8518.89" y="8446.44" type="right_before_left"/>
    <node id="10275649474" x="8507.75" y="8464.49" type="dead_end"/>
    <node id="10779872758" x="3936.81" y="3252.83" type="dead_end"/>
    <node id="10779872760" x="3999.06" y="3296.55" type="priority"/>
    <node id="10781441865" x="5577.98" y="5044.04" type="dead_end"/>
    <node id="10785136433" x="6571.44" y="7554.30" type="priority"/>
    <node id="10785136435" x="6622.51" y="7551.66" type="priority"/>
    <node id="108136068" x="8821.07" y="4334.42" type="priority"/>
    <node id="108144051" x="9151.43" y="3575.62" type="priority"/>
    <node id="108152501" x="9580.81" y="3864.69" type="dead_end"/>
    <node id="108154495" x="9564.62" y="3896.46" type="dead_end"/>
    <node id="108154517" x="9000.86" y="4159.71" type="priority"/>
    <node id="108182916" x="9247.46" y="3536.02" type="dead_end"/>
    <node id="108182917" x="9178.28" y="3565.84" type="priority"/>
    <node id="108187345" x="9254.09" y="3523.06" type="dead_end"/>
    <node id="10862499188" x="7686.55" y="6618.58" type="priority"/>
    <node id="11149539657" x="3969.27" y="8188.26" type="right_before_left"/>
    <node id="11263989627" x="6789.24" y="5667.82" type="priority"/>
    <node id="11263989628" x="6806.41" y="5732.56" type="priority"/>
    <node id="11263989630" x="6782.20" y="5738.57" type="priority"/>
    <node id="11263989631" x="6765.44" y="5670.76" type="priority"/>
    <node id="11284914435" x="6304.51" y="5250.72" type="right_before_left"/>
    <node id="11284914436" x="6330.23" y="5230.35" type="priority"/>
    <node id="11284914442" x="6379.33" y="5303.14" type="priority"/>
    <node id="11361716583" x="8663.15" y="8186.31" type="right_before_left"/>
    <node id="11361716595" x="8572.64" y="8003.17" type="priority"/>
    <node id="11364602187" x="9092.89" y="7481.74" type="priority"/>
    <node id="11364602192" x="9064.56" y="7529.82" type="right_before_left"/>
    <node id="11364602194" x="9035.73" y="7496.94" type="right_before_left"/>
    <node id="11364602197" x="9309.06" y="7713.90" type="priority"/>
    <node id="11364602207" x="9044.38" y="7674.56" type="right_before_left"/>
    <node id="11364602208" x="8800.42" y="7624.04" type="rail_crossing"/>
    <node id="11364602209" x="8817.33" y="7444.95" type="rail_crossing"/>
    <node id="11364602210" x="8820.24" y="7423.02" type="right_before_left"/>
    <node id="11364602211" x="8923.12" y="7375.02" type="priority"/>
    <node id="11364602216" x="8622.87" y="7936.49" type="priority"/>
    <node id="11364602224" x="8676.44" y="7607.88" type="rail_crossing"/>
    <node id="11364602226" x="8782.87" y="7621.72" type="right_before_left"/>
    <node id="11364602227" x="8795.62" y="7556.71" type="right_before_left"/>
    <node id="11364602228" x="8795.56" y="7550.26" type="right_before_left"/>
    <node id="11364602230" x="8751.23" y="7470.59" type="right_before_left"/>
    <node id="11364602232" x="8761.97" y="7484.10" type="rail_crossing"/>
    <node id="11364638651" x="5399.99" y="4391.93" type="priority"/>
    <node id="11364638652" x="5316.80" y="4400.39" type="priority"/>
    <node id="11364638653" x="5313.64" y="4348.65" type="priority"/>
    <node id="11364685470" x="5310.99" y="4304.17" type="priority"/>
    <node id="11364685471" x="5805.35" y="4095.71" type="priority"/>
    <node id="11364685473" x="5896.97" y="4088.47" type="priority"/>
    <node id="11364685474" x="6381.93" y="4597.18" type="priority"/>
    <node id="11364685476" x="6317.92" y="4514.97" type="priority"/>
    <node id="11364685477" x="7087.66" y="3954.62" type="priority"/>
    <node id="11364685484" x="7118.05" y="3886.45" type="priority"/>
    <node id="11364685485" x="7106.26" y="4178.01" type="priority"/>
    <node id="11364685496" x="6854.70" y="4250.80" type="priority"/>
    <node id="11364685497" x="7004.35" y="4653.10" type="priority"/>
    <node id="11364685511" x="6362.28" y="4860.96" type="priority"/>
    <node id="11364685513" x="6335.58" y="4795.26" type="priority"/>
    <node id="11364685516" x="6519.02" y="4840.13" type="priority"/>
    <node id="11364685517" x="6542.95" y="4831.20" type="priority"/>
    <node id="11364685524" x="6662.29" y="4848.23" type="priority"/>
    <node id="11364685526" x="6584.19" y="4877.12" type="right_before_left"/>
    <node id="11364685535" x="6516.71" y="4782.52" type="priority"/>
    <node id="11364685536" x="6500.57" y="4783.48" type="right_before_left"/>
    <node id="11364685538" x="6495.85" y="4772.25" type="priority"/>
    <node id="11364685541" x="5853.99" y="5837.46" type="dead_end"/>
    <node id="11364685552" x="5878.76" y="5594.39" type="priority"/>
    <node id="11390485940" x="6812.08" y="7464.64" type="priority"/>
    <node id="11390485941" x="6788.81" y="7493.61" type="priority"/>
    <node id="11390485942" x="6855.47" y="7459.71" type="priority"/>
    <node id="11390485943" x="6809.66" y="7511.65" type="priority"/>
    <node id="11390485944" x="7605.07" y="7828.88" type="priority"/>
    <node id="11390485946" x="7638.71" y="7781.90" type="priority"/>
    <node id="11390485947" x="7820.60" y="7997.14" type="priority"/>
    <node id="11390485950" x="7808.59" y="7929.33" type="priority"/>
    <node id="11390485951" x="8948.61" y="7795.68" type="priority"/>
    <node id="11390485952" x="8974.60" y="7660.11" type="right_before_left"/>
    <node id="11390485953" x="8777.04" y="7379.26" type="priority"/>
    <node id="11390485956" x="8753.91" y="7617.26" type="right_before_left"/>
    <node id="11390485958" x="8856.99" y="7635.75" type="right_before_left"/>
    <node id="11396828736" x="4986.47" y="6700.78" type="priority"/>
    <node id="11396828739" x="5026.91" y="6609.04" type="priority"/>
    <node id="11632451703" x="7503.53" y="3377.31" type="priority"/>
    <node id="11659848185" x="8813.89" y="2589.51" type="right_before_left"/>
    <node id="11659848186" x="8830.60" y="2601.25" type="priority"/>
    <node id="11659867153" x="8855.37" y="2089.02" type="priority"/>
    <node id="11659867158" x="8929.77" y="2508.66" type="right_before_left"/>
    <node id="11688200154" x="6376.23" y="5492.74" type="priority"/>
    <node id="11688200155" x="6445.68" y="5506.87" type="priority"/>
    <node id="11688424008" x="5889.62" y="3828.05" type="priority"/>
    <node id="11688424011" x="5878.26" y="3838.03" type="priority"/>
    <node id="11688424012" x="6080.33" y="4106.33" type="priority"/>
    <node id="11688424020" x="6128.71" y="4113.48" type="priority"/>
    <node id="11688424022" x="5081.79" y="3434.48" type="priority"/>
    <node id="11688424023" x="5090.78" y="3463.84" type="priority"/>
    <node id="11701537568" x="7469.70" y="7913.63" type="right_before_left"/>
    <node id="11701846167" x="7442.84" y="7857.06" type="priority"/>
    <node id="11701852970" x="7480.36" y="7920.46" type="priority"/>
    <node id="11731473522" x="5888.80" y="6101.45" type="right_before_left"/>
    <node id="11731473523" x="5884.15" y="6095.17" type="priority"/>
    <node id="11737680163" x="5303.17" y="2524.05" type="priority"/>
    <node id="11737680166" x="5272.26" y="2420.50" type="priority"/>
    <node id="11737680226" x="5887.52" y="3514.70" type="priority"/>
    <node id="11737680229" x="5917.63" y="3516.20" type="right_before_left"/>
    <node id="11737680239" x="6024.15" y="3538.58" type="right_before_left"/>
    <node id="11753768499" x="9437.04" y="3592.64" type="priority"/>
    <node id="11753768501" x="9194.34" y="3564.08" type="right_before_left"/>
    <node id="11753768502" x="9188.73" y="3561.34" type="priority"/>
    <node id="11753768506" x="8413.47" y="4483.47" type="right_before_left"/>
    <node id="11753768510" x="8332.92" y="4459.94" type="right_before_left"/>
    <node id="11753768511" x="8538.73" y="4550.34" type="priority"/>
    <node id="11753768515" x="8487.39" y="4573.62" type="right_before_left"/>
    <node id="11753768530" x="8236.62" y="4551.29" type="right_before_left"/>
    <node id="11753768539" x="8267.97" y="4374.58" type="right_before_left"/>
    <node id="11753788512" x="9185.49" y="6223.03" type="priority"/>
    <node id="11753788515" x="9190.54" y="6168.82" type="right_before_left"/>
    <node id="11753788519" x="9158.18" y="5775.85" type="dead_end"/>
    <node id="11755287395" x="5783.26" y="6939.63" type="right_before_left"/>
    <node id="11755287399" x="4954.01" y="5211.83" type="priority"/>
    <node id="11755287400" x="4947.24" y="5219.72" type="priority"/>
    <node id="11755287403" x="4920.91" y="5182.52" type="right_before_left"/>
    <node id="11755287429" x="5024.69" y="5115.69" type="priority"/>
    <node id="11755287432" x="4993.53" y="5433.83" type="priority"/>
    <node id="11755287433" x="4984.56" y="5390.59" type="priority"/>
    <node id="11755287434" x="5659.57" y="7001.56" type="priority"/>
    <node id="11755287439" x="5742.74" y="6897.68" type="priority"/>
    <node id="11755287442" x="5721.87" y="6914.29" type="right_before_left"/>
    <node id="11755287453" x="5864.16" y="7068.33" type="priority"/>
    <node id="11755287454" x="5853.75" y="7045.02" type="priority"/>
    <node id="11755290970" x="5895.62" y="6969.08" type="right_before_left"/>
    <node id="11755290973" x="5840.91" y="6875.96" type="priority"/>
    <node id="11755290974" x="6003.10" y="7096.07" type="priority"/>
    <node id="11755290975" x="5995.75" y="7104.53" type="right_before_left"/>
    <node id="11755290976" x="5975.22" y="7087.96" type="priority"/>
    <node id="11755290978" x="5986.44" y="7103.84" type="right_before_left"/>
    <node id="11755290979" x="5999.39" y="7192.40" type="priority"/>
    <node id="11755290982" x="5986.07" y="7134.00" type="right_before_left"/>
    <node id="11755290984" x="5995.60" y="7138.48" type="right_before_left"/>
    <node id="11755290998" x="6117.69" y="7070.29" type="priority"/>
    <node id="11877405212" x="9230.05" y="6748.66" type="right_before_left"/>
    <node id="11877405223" x="9298.16" y="6897.09" type="priority"/>
    <node id="11877405572" x="9236.21" y="6019.68" type="priority"/>
    <node id="11877405573" x="9229.05" y="6034.09" type="right_before_left"/>
    <node id="11961151454" x="3426.02" y="3637.71" type="right_before_left"/>
    <node id="11961151455" x="3447.98" y="3658.46" type="dead_end"/>
    <node id="11961156310" x="4757.17" y="2748.46" type="priority"/>
    <node id="11961156311" x="4778.83" y="2813.68" type="priority"/>
    <node id="11961197112" x="4800.87" y="2742.66" type="right_before_left"/>
    <node id="11961197115" x="4800.73" y="2748.63" type="priority"/>
    <node id="12041450776" x="5958.00" y="3288.38" type="priority"/>
    <node id="12041450781" x="5850.51" y="3295.35" type="priority"/>
    <node id="12041450782" x="3525.19" y="4036.04" type="priority"/>
    <node id="12041450787" x="3525.51" y="5492.93" type="priority"/>
    <node id="12041450818" x="4769.76" y="4993.89" type="priority"/>
    <node id="12041450827" x="4745.50" y="4920.21" type="priority"/>
    <node id="12041450828" x="4886.73" y="5003.49" type="priority"/>
    <node id="12041450841" x="4845.44" y="4900.24" type="priority"/>
    <node id="12072343718" x="9097.08" y="2383.75" type="right_before_left"/>
    <node id="12072343727" x="9233.94" y="2395.79" type="priority"/>
    <node id="12105194512" x="8218.08" y="4998.91" type="right_before_left"/>
    <node id="12105194516" x="8176.31" y="4890.39" type="right_before_left"/>
    <node id="12105194517" x="8190.87" y="4873.00" type="right_before_left"/>
    <node id="12105194518" x="8025.06" y="4449.59" type="priority"/>
    <node id="12105194528" x="8180.04" y="4434.68" type="right_before_left"/>
    <node id="12105194530" x="8084.93" y="4438.97" type="priority"/>
    <node id="12105194532" x="8068.98" y="4411.34" type="right_before_left"/>
    <node id="12105194540" x="8009.77" y="4362.24" type="priority"/>
    <node id="12105194543" x="8140.19" y="4429.18" type="priority"/>
    <node id="12105194549" x="7613.53" y="4522.68" type="priority"/>
    <node id="12105194551" x="7598.14" y="4499.75" type="priority"/>
    <node id="12105194557" x="8198.87" y="4113.55" type="priority"/>
    <node id="12105194568" x="8342.35" y="4083.34" type="right_before_left"/>
    <node id="12105194569" x="8498.02" y="3989.26" type="priority"/>
    <node id="12105194579" x="8605.11" y="4391.69" type="right_before_left"/>
    <node id="12105194590" x="8574.93" y="4303.39" type="right_before_left"/>
    <node id="12105194593" x="8598.81" y="4309.54" type="right_before_left"/>
    <node id="12105194599" x="8681.33" y="4328.73" type="right_before_left"/>
    <node id="12105194602" x="8619.65" y="4276.90" type="right_before_left"/>
    <node id="12105194606" x="8577.90" y="4247.38" type="right_before_left"/>
    <node id="12105194607" x="8582.44" y="4400.34" type="right_before_left"/>
    <node id="12105194612" x="8499.79" y="4300.94" type="priority"/>
    <node id="12105194617" x="7892.91" y="4429.09" type="right_before_left"/>
    <node id="12105194628" x="7793.47" y="4387.67" type="right_before_left"/>
    <node id="12105194629" x="7792.81" y="4374.75" type="right_before_left"/>
    <node id="12105194640" x="7683.54" y="4384.13" type="right_before_left"/>
    <node id="12105194668" x="7795.26" y="4422.25" type="right_before_left"/>
    <node id="12105194669" x="7705.11" y="4506.40" type="priority"/>
    <node id="12105194676" x="7656.67" y="4390.66" type="right_before_left"/>
    <node id="12105194690" x="7596.52" y="4525.69" type="priority"/>
    <node id="12105194712" x="7753.53" y="4868.67" type="right_before_left"/>
    <node id="12105194717" x="7714.49" y="4928.31" type="right_before_left"/>
    <node id="12105194722" x="7599.35" y="5124.79" type="right_before_left"/>
    <node id="12105194724" x="7619.76" y="5163.85" type="right_before_left"/>
    <node id="12105194731" x="7832.68" y="5104.45" type="right_before_left"/>
    <node id="12105194734" x="7574.13" y="5185.56" type="right_before_left"/>
    <node id="12105194737" x="7539.50" y="5203.12" type="priority"/>
    <node id="12105194750" x="7380.21" y="5269.50" type="right_before_left"/>
    <node id="12105194752" x="7326.53" y="5256.44" type="priority"/>
    <node id="12105194757" x="7382.10" y="5291.17" type="priority"/>
    <node id="12105194758" x="7432.64" y="5265.24" type="right_before_left"/>
    <node id="12105194760" x="7471.88" y="5263.31" type="priority"/>
    <node id="12105194784" x="7827.09" y="5003.62" type="right_before_left"/>
    <node id="12105194787" x="7736.12" y="4748.09" type="right_before_left"/>
    <node id="12105194791" x="7810.20" y="4698.51" type="right_before_left"/>
    <node id="12105194792" x="7712.58" y="4505.07" type="priority"/>
    <node id="12105194812" x="7507.61" y="5091.14" type="priority"/>
    <node id="12113219893" x="7072.92" y="2369.26" type="right_before_left"/>
    <node id="12113219895" x="7162.07" y="2406.42" type="priority"/>
    <node id="12113248236" x="8998.77" y="3007.14" type="right_before_left"/>
    <node id="12113248394" x="9176.07" y="3561.48" type="priority"/>
    <node id="12113248395" x="8674.91" y="3772.65" type="right_before_left"/>
    <node id="12113248396" x="8479.35" y="3595.00" type="right_before_left"/>
    <node id="12113248397" x="8682.52" y="3779.55" type="priority"/>
    <node id="12113248398" x="8689.43" y="3785.83" type="right_before_left"/>
    <node id="12113248399" x="8409.37" y="3888.49" type="right_before_left"/>
    <node id="12147990754" x="4776.15" y="2754.71" type="dead_end"/>
    <node id="12218966290" x="6625.77" y="6039.55" type="priority"/>
    <node id="12218973871" x="7035.25" y="5420.99" type="right_before_left"/>
    <node id="12218973872" x="7020.94" y="5421.13" type="priority"/>
    <node id="12219008723" x="7123.27" y="5395.78" type="priority"/>
    <node id="12219009520" x="7044.89" y="6169.43" type="dead_end"/>
    <node id="12219012806" x="7033.55" y="5601.92" type="priority"/>
    <node id="12219015692" x="5830.97" y="5502.86" type="priority"/>
    <node id="12219015693" x="5820.23" y="5506.03" type="right_before_left"/>
    <node id="12219030247" x="6420.84" y="5510.33" type="dead_end"/>
    <node id="12219030248" x="6397.54" y="5510.30" type="dead_end"/>
    <node id="12219035743" x="5760.56" y="5521.84" type="priority"/>
    <node id="12219035744" x="5817.13" y="5497.81" type="right_before_left"/>
    <node id="12219042276" x="6435.45" y="5437.69" type="priority"/>
    <node id="12219042278" x="6479.14" y="5439.45" type="dead_end"/>
    <node id="12219061798" x="8210.43" y="3954.36" type="right_before_left"/>
    <node id="12219065602" x="8178.42" y="3969.30" type="priority"/>
    <node id="12269118459" x="5432.77" y="6587.55" type="priority"/>
    <node id="12269401246" x="6629.34" y="3658.39" type="right_before_left"/>
    <node id="12269540090" x="7211.73" y="5650.84" type="right_before_left"/>
    <node id="12269540096" x="7844.98" y="5326.63" type="right_before_left"/>
    <node id="12269540097" x="7837.69" y="5194.86" type="right_before_left"/>
    <node id="12269548224" x="6056.83" y="3603.00" type="right_before_left"/>
    <node id="12269548229" x="5890.59" y="3699.13" type="priority"/>
    <node id="12269629574" x="5812.06" y="5275.26" type="priority"/>
    <node id="12269629589" x="5732.01" y="5248.12" type="right_before_left"/>
    <node id="12269629592" x="5750.21" y="5195.74" type="priority"/>
    <node id="12269649403" x="5679.23" y="5147.95" type="priority"/>
    <node id="12269649405" x="5690.68" y="5153.77" type="priority"/>
    <node id="12269649406" x="5711.50" y="5169.89" type="priority"/>
    <node id="12269649411" x="5683.57" y="5148.32" type="priority"/>
    <node id="12269649433" x="5751.60" y="5057.94" type="right_before_left"/>
    <node id="12269649435" x="5829.15" y="5012.78" type="priority"/>
    <node id="12269649440" x="5825.84" y="5079.98" type="right_before_left"/>
    <node id="12269649446" x="5833.42" y="5024.86" type="right_before_left"/>
    <node id="12269649447" x="5771.85" y="5150.32" type="priority"/>
    <node id="12269649455" x="5885.04" y="5039.74" type="right_before_left"/>
    <node id="12269649488" x="5866.99" y="5051.49" type="priority"/>
    <node id="12269649497" x="5889.55" y="5097.79" type="right_before_left"/>
    <node id="12271834324" x="7280.22" y="3766.90" type="right_before_left"/>
    <node id="12271834359" x="7222.54" y="4015.33" type="right_before_left"/>
    <node id="12271834362" x="7207.68" y="4033.59" type="right_before_left"/>
    <node id="12271834372" x="7074.13" y="4106.87" type="priority"/>
    <node id="12271834383" x="7083.97" y="4112.84" type="priority"/>
    <node id="12271834393" x="7304.97" y="3913.14" type="priority"/>
    <node id="12271834398" x="7304.89" y="3952.60" type="right_before_left"/>
    <node id="12271837402" x="7416.67" y="3744.46" type="right_before_left"/>
    <node id="12271837403" x="7304.12" y="3742.40" type="priority"/>
    <node id="12271837408" x="7246.89" y="3717.85" type="right_before_left"/>
    <node id="12271837413" x="6769.06" y="3633.93" type="priority"/>
    <node id="12271837414" x="6596.19" y="3594.43" type="right_before_left"/>
    <node id="12271837421" x="6595.84" y="3483.86" type="right_before_left"/>
    <node id="12271837425" x="6616.86" y="3461.00" type="priority"/>
    <node id="12271837429" x="6583.50" y="3468.31" type="priority"/>
    <node id="12271837431" x="6606.97" y="3413.42" type="right_before_left"/>
    <node id="12271837438" x="6074.48" y="3357.13" type="priority"/>
    <node id="12271837439" x="6247.82" y="3392.85" type="right_before_left"/>
    <node id="12271837452" x="6168.60" y="3421.83" type="right_before_left"/>
    <node id="12271837458" x="6108.42" y="3428.52" type="right_before_left"/>
    <node id="12271837472" x="6002.98" y="3505.84" type="right_before_left"/>
    <node id="12271837479" x="6099.17" y="3377.89" type="right_before_left"/>
    <node id="12271837490" x="5960.49" y="3448.53" type="right_before_left"/>
    <node id="12271837491" x="5985.98" y="3415.65" type="priority"/>
    <node id="12271837551" x="5846.77" y="3431.59" type="priority"/>
    <node id="12271837559" x="5893.34" y="3379.19" type="priority"/>