<?xml version="1.0" encoding="UTF-8"?>

<!-- generated on 2025-04-04 16:24:10 by Eclipse SUMO netconvert Version 1.19.0
<configuration xmlns:xsi="http://www.w3.org/2001/XMLSchema-instance" xsi:noNamespaceSchemaLocation="http://sumo.dlr.de/xsd/netconvertConfiguration.xsd">

    <input>
        <sumo-net-file value="parmain/parmain.net.xml"/>
    </input>

    <output>
        <plain-output-prefix value="parmain/parmain"/>
    </output>

    <processing>
        <geometry.min-radius.fix.railways value="false"/>
        <geometry.max-grade.fix value="false"/>
        <offset.disable-normalization value="true"/>
        <lefthand value="0"/>
    </processing>

    <tls_building>
        <tls.ignore-internal-junction-jam value="1"/>
    </tls_building>

    <junctions>
        <no-turnarounds value="true"/>
        <junctions.corner-detail value="5"/>
        <junctions.limit-turn-speed value="5.50"/>
        <rectangular-lane-cut value="0"/>
    </junctions>

    <pedestrian>
        <walkingareas value="0"/>
    </pedestrian>

</configuration>
-->

<edges version="1.16" xmlns:xsi="http://www.w3.org/2001/XMLSchema-instance" xsi:noNamespaceSchemaLocation="http://sumo.dlr.de/xsd/edges_file.xsd">
    <location netOffset="-439702.67,-5437293.63" convBoundary="0.00,0.00,7125.40,8770.16" origBoundary="1.932246,49.036644,2.546646,49.164546" projParameter="+proj=utm +zone=31 +ellps=WGS84 +datum=WGS84 +units=m +no_defs"/>

    <edge id="-1008076095#0" from="9300158363" to="9300158362" priority="1" type="highway.service" numLanes="1" speed="5.56" allow="pedestrian delivery bicycle"/>
    <edge id="-1008076095#1" from="9300158373" to="9300158363" priority="1" type="highway.service" numLanes="1" speed="5.56" shape="5115.54,4623.52 5130.22,4623.63 5136.19,4624.91 5140.23,4627.46 5142.77,4629.86 5144.57,4633.44 5145.30,4639.62 5144.88,4655.35" allow="pedestrian delivery bicycle"/>
    <edge id="-1008076095#2" from="9300158371" to="9300158373" priority="1" type="highway.service" numLanes="1" speed="5.56" shape="5083.94,4640.99 5083.68,4623.59 5115.54,4623.52" allow="pedestrian delivery bicycle"/>
    <edge id="-1008076095#3" from="9300158373" to="9300158371" priority="1" type="highway.service" numLanes="1" speed="5.56" shape="5115.54,4623.52 5115.66,4635.74 5083.94,4640.99" allow="pedestrian delivery bicycle"/>
    <edge id="-1008076096" from="9300158377" to="9300158363" priority="1" type="highway.service" numLanes="1" speed="5.56" shape="5127.76,4654.68 5127.83,4662.29 5130.97,4665.18 5144.61,4665.34 5144.88,4655.35" allow="pedestrian delivery bicycle"/>
    <edge id="-1028172020#0" from="cluster_2244693553_7155169892" to="4249196989" priority="3" type="highway.residential" numLanes="1" speed="13.89" shape="5100.68,6392.01 5100.13,6399.98" disallow="tram rail_urban rail rail_electric rail_fast ship"/>
    <edge id="-1041728550#0" from="9590279411" to="3890789792" priority="1" type="highway.path" numLanes="1" speed="5.56" shape="2458.88,598.11 2456.78,594.04 2451.93,583.47 2448.16,566.74 2444.72,556.81 2440.24,545.85 2428.41,527.93" width="2.00" allow="pedestrian bicycle"/>
    <edge id="-1041728550#1" from="588962979" to="9590279411" priority="1" type="highway.path" numLanes="1" speed="5.56" shape="2513.85,769.51 2509.76,751.50 2502.13,721.51 2499.55,708.24 2490.37,677.24 2479.54,647.29 2471.60,623.96 2465.69,611.09 2458.88,598.11" width="2.00" allow="pedestrian bicycle"/>
    <edge id="-1054281667#0" from="597457863" to="601054796" priority="4" type="highway.unclassified" numLanes="1" speed="13.89" disallow="tram rail_urban rail rail_electric rail_fast ship"/>
    <edge id="-1054281667#1" from="597457876" to="597457863" priority="4" type="highway.unclassified" numLanes="1" speed="13.89" disallow="tram rail_urban rail rail_electric rail_fast ship"/>
    <edge id="-1054281667#2" from="597366605" to="597457876" priority="4" type="highway.unclassified" numLanes="1" speed="13.89" disallow="tram rail_urban rail rail_electric rail_fast ship"/>
    <edge id="-1054281668#0" from="10013337773" to="cluster_10013337804_10013337809_6874241321" priority="4" type="highway.unclassified" numLanes="1" speed="13.89" shape="3495.08,4041.41 3511.16,4063.27" disallow="tram rail_urban rail rail_electric rail_fast ship"/>
    <edge id="-1054281668#1" from="8951202390" to="10013337773" priority="4" type="highway.unclassified" numLanes="1" speed="13.89" disallow="tram rail_urban rail rail_electric rail_fast ship"/>
    <edge id="-1054281668#2" from="3536963729" to="8951202390" priority="4" type="highway.unclassified" numLanes="1" speed="13.89" disallow="tram rail_urban rail rail_electric rail_fast ship"/>
    <edge id="-1054281668#3" from="cluster_12271837630_12388282659_597354815" to="3536963729" priority="4" type="highway.unclassified" numLanes="1" speed="13.89" shape="3370.77,3874.30 3376.73,3883.72 3443.00,3973.09" disallow="tram rail_urban rail rail_electric rail_fast ship"/>
    <edge id="-1054281669" from="6874241311" to="6874241318" priority="3" type="highway.residential" numLanes="1" speed="13.89" disallow="tram rail_urban rail rail_electric rail_fast ship"/>
    <edge id="-1058326901" from="601056117" to="601055964" priority="1" type="highway.track" numLanes="1" speed="5.56" shape="4651.39,6880.30 4645.06,6661.30 4651.42,6364.52 4645.94,6271.72 4623.58,6169.88 4585.50,6048.99 4571.93,6020.20 4522.24,5978.26" allow="pedestrian motorcycle moped bicycle"/>
    <edge id="-1060223827#0" from="601055964" to="356988095" priority="4" type="highway.unclassified" numLanes="1" speed="13.89" shape="4522.24,5978.26 4513.43,5924.96 4563.41,5854.05 4573.03,5850.88" disallow="tram rail_urban rail rail_electric rail_fast ship"/>
    <edge id="-1060223827#1" from="cluster_601055965_601055969" to="601055964" priority="4" type="highway.unclassified" numLanes="1" speed="13.89" shape="4383.47,6174.94 4409.93,6140.08 4460.37,6065.36 4512.17,6011.85 4522.24,5978.26" disallow="tram rail_urban rail rail_electric rail_fast ship"/>
    <edge id="-1060223827#3" from="601056049" to="cluster_601055965_601055969" priority="4" type="highway.unclassified" numLanes="1" speed="13.89" shape="4213.22,6387.09 4216.24,6385.89 4266.77,6326.50 4295.33,6291.09 4379.35,6180.37" disallow="tram rail_urban rail rail_electric rail_fast ship"/>
    <edge id="-1061421029" from="590829142" to="9751933383" priority="3" type="highway.residential" numLanes="1" speed="13.89" shape="2083.69,1107.77 2089.78,1177.34 2090.03,1182.52" disallow="tram rail_urban rail rail_electric rail_fast ship"/>
    <edge id="-1061421030" from="9751933393" to="9751933402" priority="3" type="highway.residential" numLanes="1" speed="13.89" shape="2172.88,1100.51 2154.85,1043.30 2146.94,1026.79 2143.58,1023.60 2137.97,1021.31 2129.75,1021.70 2110.80,1025.41 2083.28,1025.60 2057.91,1023.62 1929.58,1030.45" disallow="tram rail_urban rail rail_electric rail_fast ship"/>
    <edge id="-1061421031" from="9751933403" to="9751933414" priority="1" type="highway.service" numLanes="1" speed="5.56" shape="2353.47,2090.34 2352.29,2076.42 2350.34,2071.80 2347.91,2069.15 2344.07,2067.38 2339.04,2067.49 2333.33,2069.59 2329.71,2073.98 2328.92,2078.57 2330.22,2085.29 2332.92,2090.63 2338.67,2095.56" allow="pedestrian delivery bicycle"/>
    <edge id="-1061421032" from="9751933415" to="9751933416" priority="1" type="highway.service" numLanes="1" speed="5.56" allow="pedestrian delivery bicycle"/>
    <edge id="-1061421033#0" from="9752001921" to="9752001922" priority="1" type="highway.service" numLanes="1" speed="5.56" allow="pedestrian delivery bicycle"/>
    <edge id="-1061421033#1" from="9752001918" to="9752001921" priority="1" type="highway.service" numLanes="1" speed="5.56" shape="2906.26,2771.38 2890.89,2790.17 2922.98,2817.36 2931.49,2807.12" allow="pedestrian delivery bicycle"/>
    <edge id="-1061421033#2" from="9752001921" to="9752001918" priority="1" type="highway.service" numLanes="1" speed="5.56" shape="2931.49,2807.12 2939.79,2796.01 2906.26,2771.38" allow="pedestrian delivery bicycle"/>
    <edge id="-1061421034" from="9752001923" to="9752001924" priority="1" type="highway.service" numLanes="1" speed="5.56" allow="pedestrian delivery bicycle"/>
    <edge id="-1061421039" from="9752001953" to="9752001952" priority="1" type="highway.service" numLanes="1" speed="5.56" shape="3366.66,3433.10 3365.93,3438.56 3364.94,3447.07 3367.10,3466.27 3366.42,3475.93 3359.86,3494.94 3353.09,3522.43 3348.38,3551.88" allow="pedestrian delivery bicycle"/>
    <edge id="-1061421040" from="9752001954" to="9752001956" priority="1" type="highway.service" numLanes="1" speed="5.56" shape="3950.45,3037.92 3939.82,3018.11 3967.41,2990.05" allow="pedestrian delivery bicycle"/>
    <edge id="-1061421041" from="9752001957" to="9752001964" priority="1" type="highway.service" numLanes="1" speed="5.56" shape="3972.39,3087.37 3887.00,3131.47 3882.99,3132.00 3878.78,3131.26 3872.56,3126.84 3866.56,3123.58 3860.59,3124.03 3852.77,3129.12" allow="pedestrian delivery bicycle"/>
    <edge id="-1061421042" from="9752001965" to="cluster_3055818540_9752001968" priority="3" type="highway.residential" numLanes="1" speed="13.89" shape="4102.62,3468.79 4076.29,3478.63 4069.75,3489.53 4040.71,3499.84" disallow="tram rail_urban rail rail_electric rail_fast ship"/>
    <edge id="-1061421043" from="9752001969" to="9752001975" priority="1" type="highway.service" numLanes="1" speed="5.56" shape="4048.28,5236.40 4029.81,5276.34 4027.59,5279.20 4023.00,5280.61 4009.97,5278.84 4005.09,5280.06 4001.32,5284.29" allow="pedestrian delivery bicycle"/>
    <edge id="-1086983789#0" from="7164665698" to="597428424" priority="4" type="highway.unclassified" numLanes="1" speed="13.89" disallow="tram rail_urban rail rail_electric rail_fast ship"/>
    <edge id="-1086983789#1" from="7164665688" to="7164665698" priority="4" type="highway.unclassified" numLanes="1" speed="13.89" disallow="tram rail_urban rail rail_electric rail_fast ship"/>
    <edge id="-1086983789#2" from="3811001393" to="7164665688" priority="4" type="highway.unclassified" numLanes="1" speed="13.89" disallow="tram rail_urban rail rail_electric rail_fast ship"/>
    <edge id="-1086983789#3" from="597428422" to="3811001393" priority="4" type="highway.unclassified" numLanes="1" speed="13.89" shape="3683.35,2444.70 3677.27,2441.37 3671.77,2432.31" disallow="tram rail_urban rail rail_electric rail_fast ship"/>
    <edge id="-1086983790#0" from="2469277859" to="597428424" priority="3" type="highway.residential" numLanes="1" speed="13.89" shape="3620.90,2065.82 3601.38,2113.50 3593.47,2131.11 3570.57,2180.18 3519.05,2268.91" disallow="tram rail_urban rail rail_electric rail_fast ship"/>
    <edge id="-1086983790#1" from="597440983" to="2469277859" priority="3" type="highway.residential" numLanes="1" speed="13.89" disallow="tram rail_urban rail rail_electric rail_fast ship"/>
    <edge id="-1091204826#0" from="589000028" to="589000037" priority="3" type="highway.residential" numLanes="1" speed="8.33" shape="1567.71,986.55 1571.40,990.29 1573.66,993.24 1573.91,995.44 1569.75,1010.33 1569.56,1014.28 1568.75,1023.88" disallow="tram rail_urban rail rail_electric rail_fast ship"/>
    <edge id="-1091204826#1" from="2843791000" to="589000028" priority="3" type="highway.residential" numLanes="1" speed="8.33" shape="1608.23,918.93 1599.57,921.93 1592.64,924.85 1587.11,928.78 1582.95,934.43 1578.45,943.48 1570.83,962.02 1567.95,974.29 1567.70,982.72 1567.71,986.55" disallow="tram rail_urban rail rail_electric rail_fast ship"/>
    <edge id="-1093364494" from="cluster_10013267497_10013267506" to="10013267501" priority="1" type="highway.service" numLanes="1" speed="5.56" shape="2307.33,2322.13 2307.70,2314.16 2308.12,2312.31 2308.67,2308.60 2312.89,2300.37" allow="pedestrian delivery bicycle"/>
    <edge id="-1093364496" from="cluster_10013267484_592607289_7164620976" to="10013267488" priority="1" type="highway.service" numLanes="1" speed="5.56" shape="2457.81,2406.90 2455.49,2413.03 2454.46,2415.01 2453.32,2417.88 2453.39,2424.82" allow="pedestrian delivery bicycle"/>
    <edge id="-1093364502" from="cluster_4006409012_4006409694" to="cluster_10013267505_592607248" priority="1" type="highway.service" numLanes="1" speed="5.56" shape="2344.91,2311.07 2352.07,2315.69 2353.66,2316.65 2355.96,2318.07 2358.03,2341.25 2358.15,2342.55 2358.46,2346.09" allow="pedestrian delivery bicycle"/>
    <edge id="-1093364504" from="cluster_10013267497_10013267506" to="10013267510" priority="1" type="highway.service" numLanes="1" speed="5.56" shape="2305.62,2322.79 2306.66,2327.78 2307.12,2329.80 2308.92,2341.46 2317.92,2340.97" allow="pedestrian delivery bicycle"/>
    <edge id="-1093364506" from="cluster_10013267484_592607289_7164620976" to="10013267482" priority="1" type="highway.service" numLanes="1" speed="5.56" shape="2457.81,2406.90 2455.54,2400.62 2453.86,2398.97 2448.37,2389.24" allow="pedestrian delivery bicycle"/>
    <edge id="-1093364508" from="10013267473" to="10013267477" priority="1" type="highway.service" numLanes="1" speed="5.56" shape="2335.17,2184.32 2326.95,2180.01 2326.11,2176.38 2325.49,2174.26 2323.91,2166.58" allow="pedestrian delivery bicycle"/>
    <edge id="-1093364509" from="cluster_10013267478_592619317" to="10013267481" priority="1" type="highway.service" numLanes="1" speed="5.56" shape="2374.37,2530.32 2382.44,2532.59 2384.51,2532.46 2404.10,2532.06" allow="pedestrian delivery bicycle"/>
    <edge id="-1093364514" from="10013267489" to="10013267490" priority="1" type="highway.service" numLanes="1" speed="5.56" allow="pedestrian delivery bicycle"/>
    <edge id="-1093364515" from="10013267491" to="10013267496" priority="1" type="highway.service" numLanes="1" speed="5.56" shape="2437.50,2277.35 2437.55,2285.40 2443.55,2298.41 2443.42,2304.80 2442.00,2308.78 2441.90,2313.17" allow="pedestrian delivery bicycle"/>
    <edge id="-1093364519" from="10013267511" to="10013267514" priority="1" type="highway.service" numLanes="1" speed="5.56" shape="2323.71,2379.90 2328.38,2405.17 2328.64,2407.33 2329.31,2414.21" allow="pedestrian delivery bicycle"/>
    <edge id="-1093364522" from="10013267515" to="10013313318" priority="1" type="highway.service" numLanes="1" speed="5.56" shape="2362.39,2529.50 2365.46,2519.10 2365.95,2517.50 2366.99,2513.87 2363.11,2501.80" allow="pedestrian delivery bicycle"/>
    <edge id="-1093364525" from="10013313319" to="10013313322" priority="1" type="highway.service" numLanes="1" speed="5.56" shape="2328.05,2478.05 2338.92,2475.20 2340.73,2474.54 2361.93,2472.71" allow="pedestrian delivery bicycle"/>
    <edge id="-1093367438#0" from="10013336762" to="10013337779" priority="1" type="highway.service" numLanes="1" speed="5.56" shape="3487.81,4046.91 3486.60,4047.81 3483.19,4049.11 3478.58,4047.65 3474.62,4043.01 3471.50,4039.87 3467.14,4039.33" allow="pedestrian delivery bicycle"/>
    <edge id="-1093367438#1" from="10013337773" to="10013336762" priority="1" type="highway.service" numLanes="1" speed="5.56" allow="pedestrian delivery bicycle"/>
    <edge id="-1093367440" from="10013337801" to="10013337802" priority="1" type="highway.service" numLanes="1" speed="5.56" allow="pedestrian delivery bicycle"/>
    <edge id="-1093367441" from="10013337803" to="cluster_10013337804_10013337809_6874241321" priority="1" type="highway.service" numLanes="1" speed="5.56" shape="3517.51,4093.74 3500.57,4071.50" allow="pedestrian delivery bicycle"/>
    <edge id="-109690729" from="601055024" to="1255036762" priority="1" type="highway.track" numLanes="1" speed="5.56" allow="pedestrian motorcycle moped bicycle"/>
    <edge id="-109791045#0" from="12271837408" to="cluster_12271834324_601054129_601054132" priority="1" type="highway.path" numLanes="1" speed="5.56" shape="4531.86,1715.93 4542.53,1736.02 4559.72,1762.62" width="2.00" allow="pedestrian bicycle"/>
    <edge id="-109791045#1" from="3156993268" to="12271837408" priority="1" type="highway.path" numLanes="1" speed="5.56" shape="4271.44,1595.42 4466.39,1642.30 4488.31,1654.01 4500.42,1672.38 4516.28,1696.46 4529.75,1711.95 4531.86,1715.93" width="2.00" allow="pedestrian bicycle"/>
    <edge id="-109791045#2" from="3976474327" to="3156993268" priority="1" type="highway.path" numLanes="1" speed="5.56" shape="4069.16,1586.45 4128.90,1588.51 4164.90,1589.71 4227.78,1577.62 4271.44,1595.42" width="2.00" allow="pedestrian bicycle"/>
    <edge id="-109791045#3" from="1255036748" to="3976474327" priority="1" type="highway.path" numLanes="1" speed="5.56" shape="3989.86,1454.83 4026.03,1504.96 4061.95,1581.37 4069.16,1586.45" width="2.00" allow="pedestrian bicycle"/>
    <edge id="-109791045#4" from="12271837431" to="1255036748" priority="1" type="highway.path" numLanes="1" speed="5.56" shape="3891.95,1411.50 3902.81,1411.94 3912.70,1415.28 3989.86,1454.83" width="2.00" allow="pedestrian bicycle"/>
    <edge id="-109791045#5" from="1255036698" to="12271837431" priority="1" type="highway.path" numLanes="1" speed="5.56" shape="3750.33,1435.82 3802.91,1420.47 3891.95,1411.50" width="2.00" allow="pedestrian bicycle"/>
    <edge id="-109791045#6" from="1255036761" to="1255036698" priority="1" type="highway.path" numLanes="1" speed="5.56" width="2.00" allow="pedestrian bicycle"/>
    <edge id="-1098224167#0" from="cluster_3495375598_3577284230" to="10055650122" priority="1" type="highway.path" numLanes="1" speed="5.56" shape="2609.81,3178.51 2623.91,3175.17" width="2.00" allow="pedestrian bicycle"/>
    <edge id="-1098224167#1" from="10055650120" to="cluster_3495375598_3577284230" priority="1" type="highway.path" numLanes="1" speed="5.56" shape="2602.36,3179.96 2609.81,3178.51" width="2.00" allow="pedestrian bicycle"/>
    <edge id="-1098238072#1" from="10055785050" to="cluster_10055785046_10055785049_10055785051_3549015670" priority="1" type="highway.service" numLanes="1" speed="5.56" shape="2643.53,3263.56 2638.74,3264.38" allow="pedestrian delivery bicycle"/>
    <edge id="-1098769752" from="10060501724" to="10060501718" priority="1" type="highway.service" numLanes="1" speed="5.56" shape="2641.90,5487.71 2620.92,5434.45 2613.86,5418.75 2608.81,5396.86 2605.87,5370.33 2602.09,5348.42 2593.87,5327.08 2576.56,5311.88" allow="pedestrian delivery bicycle"/>
    <edge id="-1098769754" from="10060501732" to="10060501730" priority="1" type="highway.track" numLanes="1" speed="5.56" shape="2758.32,5522.12 2798.36,5572.06 2807.84,5578.91 2821.64,5580.38" allow="pedestrian motorcycle moped bicycle"/>
    <edge id="-1098826687" from="cluster_2244693553_7155169892" to="2244693558" priority="1" type="highway.path" numLanes="1" speed="5.56" shape="5100.77,6389.61 4986.55,6374.37 4925.93,6366.99" width="2.00" allow="pedestrian bicycle"/>
    <edge id="-1098826688" from="2244673949" to="2244673974" priority="1" type="highway.path" numLanes="1" speed="5.56" shape="4912.39,6450.99 4914.65,6441.92 4922.26,6391.06 4921.09,6387.03" width="2.00" allow="pedestrian bicycle"/>
    <edge id="-1098829519" from="10060941962" to="5922668987" priority="1" type="highway.path" numLanes="1" speed="5.56" shape="4874.98,6098.53 4875.83,6116.33 4880.05,6128.37 4884.31,6133.02 4892.35,6135.09 4906.83,6134.45 4916.63,6136.79 4925.21,6144.22" width="2.00" allow="pedestrian bicycle"/>
    <edge id="-1098829520" from="10060941970" to="10060941974" priority="1" type="highway.path" numLanes="1" speed="5.56" shape="5082.77,6114.57 5078.29,6162.58 5079.41,6167.16 5085.85,6174.99 5093.83,6180.74" width="2.00" allow="pedestrian bicycle"/>
    <edge id="-1098829521" from="10060941982" to="10060941984" priority="1" type="highway.service" numLanes="1" speed="5.56" shape="5048.30,5980.77 5034.93,5973.20 5029.07,5975.06" allow="pedestrian delivery bicycle"/>
    <edge id="-1098829522" from="5922668986" to="10060942001" priority="1" type="highway.path" numLanes="1" speed="5.56" shape="4870.87,6168.76 4867.11,6164.79 4860.81,6150.42 4856.45,6144.81 4848.68,6140.40 4838.19,6137.97 4823.22,6137.58" width="2.00" allow="pedestrian bicycle"/>
    <edge id="-1098829523" from="10060942002" to="5922668988" priority="1" type="highway.path" numLanes="1" speed="5.56" shape="4958.13,6190.90 4941.61,6179.94 4943.17,6149.79 4941.63,6143.18" width="2.00" allow="pedestrian bicycle"/>
    <edge id="-1099334888" from="10064195656" to="10064195657" priority="1" type="highway.path" numLanes="1" speed="5.56" width="2.00" allow="pedestrian bicycle"/>
    <edge id="-1100568716#0" from="1856035587" to="1398460300" priority="1" type="highway.cycleway" numLanes="1" speed="5.56" shape="2089.83,716.66 2089.00,721.31 2088.16,730.30 2087.11,735.70 2085.87,739.38" width="2.00" allow="pedestrian bicycle"/>
    <edge id="-1100568716#1" from="1856035583" to="1856035587" priority="1" type="highway.cycleway" numLanes="1" speed="5.56" shape="2113.54,684.98 2092.90,711.06 2089.83,716.66" width="2.00" allow="pedestrian bicycle"/>
    <edge id="-1100568716#2" from="1856035582" to="1856035583" priority="1" type="highway.cycleway" numLanes="1" speed="5.56" shape="2123.55,673.59 2116.53,681.13 2113.54,684.98" width="2.00" allow="pedestrian bicycle"/>
    <edge id="-1100568719#0" from="cluster_10072577731_2009797739_588948269" to="1856035587" priority="1" type="highway.path" numLanes="1" speed="5.56" shape="2084.79,713.88 2089.83,716.66" width="2.00" allow="pedestrian bicycle"/>
    <edge id="-1104948295#1" from="cluster_2711131654_5763007181" to="cluster_322702423_3912677464" priority="3" type="highway.residential" numLanes="1" speed="13.89" shape="4962.11,5510.96 4957.87,5522.67" disallow="tram rail_urban rail rail_electric rail_fast ship"/>
    <edge id="-1104948295#3" from="cluster_10064195698_4249164279" to="cluster_2711131654_5763007181" priority="3" type="highway.residential" numLanes="1" speed="13.89" shape="4963.61,5500.12 4962.59,5507.52" disallow="tram rail_urban rail rail_electric rail_fast ship"/>
    <edge id="-1107032109#0" from="10129746211" to="10129746198" priority="1" type="highway.service" numLanes="1" speed="5.56" shape="855.75,2320.56 859.97,2318.87 876.07,2330.65" allow="pedestrian delivery bicycle"/>
    <edge id="-1107032109#1" from="10129746205" to="10129746211" priority="1" type="highway.service" numLanes="1" speed="5.56" shape="817.25,2326.16 819.18,2331.10 834.64,2338.87 839.93,2337.83 844.42,2332.71 853.47,2321.47 855.75,2320.56" allow="pedestrian delivery bicycle"/>
    <edge id="-1107032109#2" from="10129746211" to="10129746205" priority="1" type="highway.service" numLanes="1" speed="5.56" shape="855.75,2320.56 851.78,2317.84 844.42,2312.42 834.99,2309.86 828.05,2312.04 819.28,2319.96 817.25,2326.16" allow="pedestrian delivery bicycle"/>
    <edge id="-1112232938" from="10175418683" to="10175418685" priority="1" type="highway.service" numLanes="1" speed="5.56" shape="3480.22,4087.34 3492.06,4102.45 3492.89,4107.37" allow="pedestrian delivery bicycle"/>
    <edge id="-1115651168#0" from="601055580" to="cluster_3495375626_595176917" priority="11" type="highway.secondary" numLanes="1" speed="22.22" shape="4112.38,5108.06 3759.32,4936.82 3713.69,4914.77 3667.69,4891.16 3637.13,4874.71 3615.82,4862.28 3595.99,4849.66 3569.14,4832.21 3361.62,4689.16 3174.96,4559.76 3095.19,4505.69 3066.91,4487.02 3046.53,4474.75 2983.65,4439.98 2981.03,4438.42" disallow="tram rail_urban rail rail_electric rail_fast ship">
        <param key="ref" value="D 4"/>
    </edge>
    <edge id="-1115651168#1" from="601055896" to="601055580" priority="11" type="highway.secondary" numLanes="1" speed="22.22" shape="4478.77,5285.72 4454.83,5273.95 4270.89,5184.97 4112.38,5108.06" disallow="tram rail_urban rail rail_electric rail_fast ship">
        <param key="ref" value="D 4"/>
    </edge>
    <edge id="-1118442878" from="282407136" to="5492097426" priority="1" type="highway.path" numLanes="1" speed="5.56" shape="1813.37,923.38 1814.33,929.51 1829.08,953.39 1858.51,997.93 1854.29,1004.50 1841.41,998.53 1821.97,989.70 1788.52,976.28 1762.76,1016.57 1742.48,1065.82 1652.96,1169.80" width="2.00" allow="pedestrian bicycle"/>
    <edge id="-1118442880" from="590870282" to="590848540" priority="1" type="highway.track" numLanes="1" speed="5.56" shape="2104.16,2196.36 2095.41,2196.65 2036.81,2165.27 1979.85,2120.99 1963.68,2096.01 1938.13,2071.77 1914.23,2041.13 1763.26,1871.54 1755.87,1863.74" allow="pedestrian motorcycle moped bicycle"/>
    <edge id="-1118442881" from="590848540" to="5492097440" priority="1" type="highway.track" numLanes="1" speed="5.56" shape="1755.87,1863.74 1747.29,1856.49 1693.78,1834.96 1681.84,1832.76" allow="pedestrian motorcycle moped bicycle"/>
    <edge id="-1118442882" from="5492097443" to="590870284" priority="1" type="highway.track" numLanes="1" speed="5.56" shape="1651.10,1920.20 1694.07,2028.00 1712.50,2095.25 1747.31,2176.25 1767.78,2268.05" allow="pedestrian motorcycle moped bicycle"/>
    <edge id="-1118442885" from="5492097426" to="588983801" priority="1" type="highway.path" numLanes="1" speed="5.56" shape="1652.96,1169.80 1554.84,1283.78 1516.67,1319.24 1470.25,1366.02 1440.89,1407.01" width="2.00" allow="pedestrian bicycle"/>
    <edge id="-1118972230#0" from="593870419" to="593870452" priority="1" type="highway.track" numLanes="1" speed="5.56" shape="1282.84,2558.09 1278.61,2582.24 1304.46,2648.26 1331.84,2690.14 1345.19,2715.82 1352.92,2743.72 1361.56,2781.06 1379.52,2838.96 1403.03,2880.00 1416.69,2938.06" allow="pedestrian motorcycle moped bicycle"/>
    <edge id="-1118972230#1" from="589082951" to="593870419" priority="1" type="highway.track" numLanes="1" speed="5.56" shape="1087.72,2096.61 1095.75,2106.84 1119.64,2140.20 1149.63,2215.81 1176.70,2278.59 1220.78,2347.91 1252.77,2442.03 1276.93,2535.30 1282.84,2558.09" allow="pedestrian motorcycle moped bicycle"/>
    <edge id="-1118972230#2" from="589082936" to="589082951" priority="1" type="highway.track" numLanes="1" speed="5.56" shape="916.98,1917.67 963.09,1961.93 1014.15,2009.33 1065.71,2073.94 1087.72,2096.61" allow="pedestrian motorcycle moped bicycle"/>
    <edge id="-1118972230#3" from="589082884" to="589082936" priority="1" type="highway.track" numLanes="1" speed="5.56" allow="pedestrian motorcycle moped bicycle"/>
    <edge id="-1154797833" from="6874241319" to="10013337799" priority="3" type="highway.residential" numLanes="1" speed="13.89" disallow="tram rail_urban rail rail_electric rail_fast ship"/>
    <edge id="-1159735485" from="10785136433" to="cluster_10785136435_2809391285" priority="1" type="highway.service" numLanes="1" speed="5.56" shape="3856.42,5552.38 3899.61,5548.04 3907.49,5549.74" allow="pedestrian delivery bicycle"/>
    <edge id="-1196379287#1" from="601054330" to="cluster_3811001392_597434964" priority="3" type="highway.residential" numLanes="1" speed="13.89" shape="4271.33,2671.05 4247.35,2630.99 4210.72,2548.10" disallow="tram rail_urban rail rail_electric rail_fast ship"/>
    <edge id="-1196379287#2" from="597434977" to="601054330" priority="3" type="highway.residential" numLanes="1" speed="13.89" shape="4327.05,2766.24 4314.25,2743.44 4271.33,2671.05" disallow="tram rail_urban rail rail_electric rail_fast ship"/>
    <edge id="-1196379288" from="260713590" to="cluster_3811001392_597434964" priority="11" type="highway.secondary" numLanes="1" speed="13.89" shape="4503.19,2414.06 4216.49,2537.94 4207.87,2541.66" disallow="tram rail_urban rail rail_electric rail_fast ship">
        <param key="ref" value="D 64"/>
    </edge>
    <edge id="-1196379289#0" from="3055817813" to="597434977" priority="3" type="highway.residential" numLanes="1" speed="13.89" shape="4357.57,2811.91 4353.97,2806.32 4334.49,2778.56 4327.05,2766.24" disallow="tram rail_urban rail rail_electric rail_fast ship"/>
    <edge id="-1196379289#1" from="597434980" to="3055817813" priority="3" type="highway.residential" numLanes="1" speed="13.89" shape="4415.47,2909.01 4386.71,2851.88 4372.86,2831.60 4357.57,2811.91" disallow="tram rail_urban rail rail_electric rail_fast ship"/>
    <edge id="-1196379293#0" from="6227231796" to="597428457" priority="3" type="highway.residential" numLanes="1" speed="13.89" shape="4146.83,3419.30 4140.74,3252.18 4138.27,3229.60" disallow="tram rail_urban rail rail_electric rail_fast ship"/>
    <edge id="-1196379293#1" from="597322770" to="6227231796" priority="3" type="highway.residential" numLanes="1" speed="13.89" shape="4139.05,3457.64 4144.54,3453.69 4147.00,3450.68 4148.08,3447.03 4147.58,3435.95 4146.83,3419.30" disallow="tram rail_urban rail rail_electric rail_fast ship"/>
    <edge id="-1196379294#1" from="cluster_6584498282_6584498283" to="cluster_340209602_6874241291" priority="4" type="highway.unclassified" numLanes="1" speed="13.89" shape="2944.68,3150.76 2940.91,3145.23 2932.33,3129.72 2925.99,3115.87 2923.41,3110.25 2917.56,3103.02" disallow="tram rail_urban rail rail_electric rail_fast ship"/>
    <edge id="-1196379294#2" from="597340152" to="cluster_6584498282_6584498283" priority="4" type="highway.unclassified" numLanes="1" speed="13.89" shape="2963.94,3186.84 2944.68,3150.76" disallow="tram rail_urban rail rail_electric rail_fast ship"/>
    <edge id="-1196379294#3" from="6874241285" to="597340152" priority="4" type="highway.unclassified" numLanes="1" speed="13.89" disallow="tram rail_urban rail rail_electric rail_fast ship"/>
    <edge id="-1196379294#4" from="3506876694" to="6874241285" priority="4" type="highway.unclassified" numLanes="1" speed="13.89" disallow="tram rail_urban rail rail_electric rail_fast ship"/>
    <edge id="-1196379294#5" from="cluster_597340153_7892845743_7892845744" to="3506876694" priority="4" type="highway.unclassified" numLanes="1" speed="13.89" shape="2983.69,3314.61 2982.53,3304.95" disallow="tram rail_urban rail rail_electric rail_fast ship"/>
    <edge id="-1196379294#7" from="3810982738" to="cluster_597340153_7892845743_7892845744" priority="4" type="highway.unclassified" numLanes="1" speed="13.89" shape="3015.88,3334.53 2997.15,3322.42 2995.48,3321.03" disallow="tram rail_urban rail rail_electric rail_fast ship"/>