<?xml version="1.0" encoding="UTF-8"?>

<!-- generated on 2025-04-04 16:23:34 by Eclipse SUMO netconvert Version 1.19.0
<configuration xmlns:xsi="http://www.w3.org/2001/XMLSchema-instance" xsi:noNamespaceSchemaLocation="http://sumo.dlr.de/xsd/netconvertConfiguration.xsd">

    <input>
        <sumo-net-file value="montereau_fault_yonne/montereau_fault_yonne.net.xml"/>
    </input>

    <output>
        <plain-output-prefix value="montereau_fault_yonne/montereau_fault_yonne"/>
    </output>

    <processing>
        <geometry.min-radius.fix.railways value="false"/>
        <geometry.max-grade.fix value="false"/>
        <offset.disable-normalization value="true"/>
        <lefthand value="0"/>
    </processing>

    <tls_building>
        <tls.ignore-internal-junction-jam value="1"/>
    </tls_building>

    <junctions>
        <no-turnarounds value="true"/>
        <junctions.corner-detail value="5"/>
        <junctions.limit-turn-speed value="5.50"/>
        <rectangular-lane-cut value="0"/>
    </junctions>

    <pedestrian>
        <walkingareas value="0"/>
    </pedestrian>

</configuration>
-->

<tlLogics version="1.16" xmlns:xsi="http://www.w3.org/2001/XMLSchema-instance" xsi:noNamespaceSchemaLocation="http://sumo.dlr.de/xsd/tllogic_file.xsd">
    <tlLogic id="131850566" type="static" programID="0" offset="0">
        <phase duration="42" state="rrrrGGggrrrrGGgg"/>
        <phase duration="3"  state="rrrryyyyrrrryyyy"/>
        <phase duration="42" state="GGggrrrrGGggrrrr"/>
        <phase duration="3"  state="yyyyrrrryyyyrrrr"/>
    </tlLogic>
    <tlLogic id="131850567" type="static" programID="0" offset="0">
        <phase duration="39" state="GGggrrrrGGggrrrr"/>
        <phase duration="6"  state="yyyyrrrryyyyrrrr"/>
        <phase duration="39" state="rrrrGGggrrrrGGgg"/>
        <phase duration="6"  state="rrrryyyyrrrryyyy"/>
    </tlLogic>
    <tlLogic id="444026651" type="static" programID="0" offset="0">
        <phase duration="39" state="GGgggrrrrrGGGggrrrrr"/>
        <phase duration="6"  state="yyyyyrrrrryyyyyrrrrr"/>
        <phase duration="39" state="rrrrrGGgggrrrrrGGGgg"/>
        <phase duration="6"  state="rrrrryyyyyrrrrryyyyy"/>
    </tlLogic>
    <tlLogic id="GS_cluster_132247240_3995929379" type="static" programID="0" offset="0">
        <phase duration="33" state="rrrGGGgGGgg"/>
        <phase duration="6"  state="rrryyyyyygg"/>
        <phase duration="6"  state="rrrrrrrGGGG"/>
        <phase duration="6"  state="rrrrrrryyyy"/>
        <phase duration="33" state="GGgGrrrrrrr"/>
        <phase duration="6"  state="yyyyrrrrrrr"/>
    </tlLogic>
    <tlLogic id="GS_cluster_195700681_2128950922" type="static" programID="0" offset="0">
        <phase duration="42" state="rrrrGGGggrrrrGGgg"/>
        <phase duration="3"  state="rrrryyyyyrrrryyyy"/>
        <phase duration="42" state="GGggrrrrrGGggrrrr"/>
        <phase duration="3"  state="yyyyrrrrryyyyrrrr"/>
    </tlLogic>
    <tlLogic id="GS_cluster_195700710_2128950904" type="static" programID="0" offset="0">
        <phase duration="35" state="rrrrGGrrrrrrGGrr"/>
        <phase duration="5"  state="rrrryyrrrrrryyrr"/>
        <phase duration="6"  state="rrrrrrGGrrrrrrGG"/>
        <phase duration="5"  state="rrrrrryyrrrrrryy"/>
        <phase duration="34" state="GGggrrrrGGggrrrr"/>
        <phase duration="5"  state="yyyyrrrryyyyrrrr"/>
    </tlLogic>
    <tlLogic id="cluster_10286333250_195488881" type="static" programID="0" offset="0">
        <phase duration="27" state="GGGrrrrrGGGgggrrrrr"/>
        <phase duration="6"  state="yyyrrrrryyygggrrrrr"/>
        <phase duration="6"  state="rrrGGrrrrrrGGGrrrrr"/>
        <phase duration="6"  state="rrryyrrrrrryyyrrrrr"/>
        <phase duration="27" state="rrrrrGGgrrrrrrGGggG"/>
        <phase duration="6"  state="rrrrryygrrrrrryyggy"/>
        <phase duration="6"  state="rrrrrrrGrrrrrrrrGGr"/>
        <phase duration="6"  state="rrrrrrryrrrrrrrryyr"/>
    </tlLogic>
    <tlLogic id="cluster_12331496839_124168255_1738029688_8016223992_#1more" type="static" programID="0" offset="0">
        <phase duration="24" state="GGggggrrrrrrrrrrrrGGGGggrrrrrr"/>
        <phase duration="6"  state="yyyyyyrrrrrrrrrrrryyyyyyrrrrrr"/>
        <phase duration="24" state="rrrrrrrrrrrrGGGgggrrrrrrGGGggg"/>
        <phase duration="6"  state="rrrrrrrrrrrryyyyyyrrrrrryyyyyy"/>
        <phase duration="24" state="rrrrrrGGGGGgGrrrrrrrrrrrrrrrrr"/>
        <phase duration="6"  state="rrrrrryyyyyyyrrrrrrrrrrrrrrrrr"/>
    </tlLogic>
    <tlLogic id="cluster_131851080_574428352" type="static" programID="0" offset="0">
        <phase duration="33" state="GGrrrrrGGGg"/>
        <phase duration="6"  state="yyrrrrryyyy"/>
        <phase duration="6"  state="GGGGrrrrrrr"/>
        <phase duration="6"  state="yyyyrrrrrrr"/>
        <phase duration="33" state="rrrrGGgGrrr"/>
        <phase duration="6"  state="rrrryyyyrrr"/>
    </tlLogic>
    <tlLogic id="cluster_1835630369_195488888" type="static" programID="0" offset="0">
        <phase duration="27" state="GggrrrGGgrrr"/>
        <phase duration="3"  state="yyyrrryyyrrr"/>
        <phase duration="27" state="rrrrrrrrrGGG"/>
        <phase duration="3"  state="rrrrrrrrryyy"/>
        <phase duration="27" state="rrrGGgGrrrrr"/>
        <phase duration="3"  state="rrryyyyrrrrr"/>
    </tlLogic>
    <tlLogic id="cluster_195698270_3995098876_3995098879" type="static" programID="0" offset="0">
        <phase duration="20" state="GGgGggrrrrrr"/>
        <phase duration="5"  state="yyyyggrrrrrr"/>
        <phase duration="6"  state="rrrGGGrrrrrr"/>
        <phase duration="5"  state="rrryyyrrrrrr"/>
        <phase duration="22" state="rrrrrrGGGrrr"/>
        <phase duration="5"  state="rrrrrryyyrrr"/>
        <phase duration="22" state="GrrrrrrrrGGg"/>
        <phase duration="5"  state="yrrrrrrrryyy"/>
    </tlLogic>
    <tlLogic id="joinedS_3995929395_cluster_3995929391_430920482" type="static" programID="0" offset="0">
        <phase duration="25" state="GrGrrrrrGGGg"/>
        <phase duration="5"  state="yryrrrrryyyy"/>
        <phase duration="25" state="rGrrrGGgGGrr"/>
        <phase duration="5"  state="ryrrryyyyyrr"/>
        <phase duration="25" state="rGGGgGrrrrrr"/>
        <phase duration="5"  state="ryyyyyrrrrrr"/>
    </tlLogic>

    <connection from="-1080087099" to="137390626" fromLane="0" toLane="0" tl="131850566" linkIndex="12"/>
    <connection from="-1080087099" to="1080087100" fromLane="0" toLane="0" tl="131850566" linkIndex="13"/>
    <connection from="-1080087099" to="18932845#0" fromLane="0" toLane="0" tl="131850566" linkIndex="14"/>
    <connection from="-1080087099" to="1080087099" fromLane="0" toLane="0" tl="131850566" linkIndex="15"/>
    <connection from="-1102648499" to="-18932178#6" fromLane="0" toLane="0" tl="cluster_195698270_3995098876_3995098879" linkIndex="3"/>
    <connection from="-1102648499" to="-18913062#5" fromLane="1" toLane="0" tl="cluster_195698270_3995098876_3995098879" linkIndex="4"/>
    <connection from="-1102648499" to="1102648499" fromLane="1" toLane="0" tl="cluster_195698270_3995098876_3995098879" linkIndex="5"/>
    <connection from="-1249682051" to="-1249682050" fromLane="0" toLane="0" tl="444026651" linkIndex="0"/>
    <connection from="-1249682051" to="-1249682048#1" fromLane="0" toLane="0" tl="444026651" linkIndex="1"/>
    <connection from="-1249682051" to="190247221" fromLane="0" toLane="0" tl="444026651" linkIndex="2"/>
    <connection from="-1249682051" to="37995855" fromLane="0" toLane="0" tl="444026651" linkIndex="3"/>
    <connection from="-1249682051" to="-586412517" fromLane="0" toLane="0" tl="444026651" linkIndex="4"/>
    <connection from="-137390626" to="1080087100" fromLane="0" toLane="0" tl="131850566" linkIndex="8"/>
    <connection from="-137390626" to="18932845#0" fromLane="0" toLane="0" tl="131850566" linkIndex="9"/>
    <connection from="-137390626" to="1080087099" fromLane="0" toLane="0" tl="131850566" linkIndex="10"/>
    <connection from="-137390626" to="137390626" fromLane="0" toLane="0" tl="131850566" linkIndex="11"/>
    <connection from="-151204889#1" to="-151204889#0" fromLane="0" toLane="0" tl="2129468735" linkIndex="1"/>
    <connection from="-172682222" to="-18932178#2" fromLane="0" toLane="0" tl="cluster_1835630369_195488888" linkIndex="3"/>
    <connection from="-172682222" to="18932178#4" fromLane="0" toLane="0" tl="cluster_1835630369_195488888" linkIndex="4"/>
    <connection from="-172682222" to="172682222" fromLane="0" toLane="0" tl="cluster_1835630369_195488888" linkIndex="5"/>
    <connection from="-172682233#2" to="1370057325#2" fromLane="0" toLane="0" tl="GS_cluster_195700681_2128950922" linkIndex="0"/>
    <connection from="-172682233#2" to="-427195175#3" fromLane="0" toLane="0" tl="GS_cluster_195700681_2128950922" linkIndex="1"/>
    <connection from="-172682233#2" to="172682163#2" fromLane="0" toLane="0" tl="GS_cluster_195700681_2128950922" linkIndex="2"/>
    <connection from="-172682233#2" to="172682233#1" fromLane="0" toLane="0" tl="GS_cluster_195700681_2128950922" linkIndex="3"/>
    <connection from="-18898492#0" to="18932845#0" fromLane="0" toLane="0" tl="131850566" linkIndex="4"/>
    <connection from="-18898492#0" to="1080087099" fromLane="0" toLane="0" tl="131850566" linkIndex="5"/>
    <connection from="-18898492#0" to="137390626" fromLane="0" toLane="0" tl="131850566" linkIndex="6"/>
    <connection from="-18898492#0" to="1080087100" fromLane="0" toLane="0" tl="131850566" linkIndex="7"/>
    <connection from="-18931823#0" to="-137390626" fromLane="0" toLane="0" tl="131850567" linkIndex="4"/>
    <connection from="-18931823#0" to="-1078011422" fromLane="0" toLane="0" tl="131850567" linkIndex="5"/>
    <connection from="-18931823#0" to="-406195542" fromLane="0" toLane="0" tl="131850567" linkIndex="6"/>
    <connection from="-18931823#0" to="18931823#0" fromLane="0" toLane="0" tl="131850567" linkIndex="7"/>
    <connection from="-18932178#4" to="172682222" fromLane="0" toLane="0" tl="cluster_1835630369_195488888" linkIndex="6"/>
    <connection from="-18932178#4" to="-18932178#2" fromLane="0" toLane="0" tl="cluster_1835630369_195488888" linkIndex="7"/>
    <connection from="-18932178#4" to="18932178#4" fromLane="0" toLane="0" tl="cluster_1835630369_195488888" linkIndex="8"/>
    <connection from="-18932845#0" to="1080087099" fromLane="0" toLane="0" tl="131850566" linkIndex="0"/>
    <connection from="-18932845#0" to="137390626" fromLane="0" toLane="0" tl="131850566" linkIndex="1"/>
    <connection from="-18932845#0" to="1080087100" fromLane="0" toLane="0" tl="131850566" linkIndex="2"/>
    <connection from="-18932845#0" to="18932845#0" fromLane="0" toLane="0" tl="131850566" linkIndex="3"/>
    <connection from="-18934349#0" to="-578531304#1" fromLane="0" toLane="0" tl="cluster_10286333250_195488881" linkIndex="14"/>
    <connection from="-18934349#0" to="459251293#0" fromLane="0" toLane="0" tl="cluster_10286333250_195488881" linkIndex="15"/>
    <connection from="-18934349#0" to="-440557653#0" fromLane="0" toLane="1" tl="cluster_10286333250_195488881" linkIndex="16"/>
    <connection from="-18934349#0" to="754353683" fromLane="0" toLane="0" tl="cluster_10286333250_195488881" linkIndex="17"/>
    <connection from="-18934349#0" to="18934349#0" fromLane="0" toLane="0" tl="cluster_10286333250_195488881" linkIndex="18"/>
    <connection from="-202985138#1" to="-202985138#0" fromLane="0" toLane="0" tl="2129468652" linkIndex="1"/>
    <connection from="-29260616#2" to="202944390" fromLane="0" toLane="0" tl="GS_cluster_195700710_2128950904" linkIndex="0"/>
    <connection from="-29260616#2" to="-29261256#2" fromLane="0" toLane="0" tl="GS_cluster_195700710_2128950904" linkIndex="1"/>
    <connection from="-29260616#2" to="29411353" fromLane="0" toLane="0" tl="GS_cluster_195700710_2128950904" linkIndex="2"/>
    <connection from="-29260616#2" to="29260616#1" fromLane="0" toLane="0" tl="GS_cluster_195700710_2128950904" linkIndex="3"/>
    <connection from="-29348604#1" to="13967301#0" fromLane="0" toLane="0" tl="GS_cluster_132247240_3995929379" linkIndex="0"/>
    <connection from="-29348604#1" to="791076362" fromLane="0" toLane="1" tl="GS_cluster_132247240_3995929379" linkIndex="1"/>
    <connection from="-29348604#1" to="29348604#0" fromLane="0" toLane="0" tl="GS_cluster_132247240_3995929379" linkIndex="2"/>
    <connection from="-315263227#1" to="-1000643420" fromLane="0" toLane="0" tl="cluster_12331496839_124168255_1738029688_8016223992_#1more" linkIndex="12"/>
    <connection from="-315263227#1" to="453245655#0" fromLane="0" toLane="0" tl="cluster_12331496839_124168255_1738029688_8016223992_#1more" linkIndex="13"/>
    <connection from="-315263227#1" to="38536424#0" fromLane="0" toLane="0" tl="cluster_12331496839_124168255_1738029688_8016223992_#1more" linkIndex="14"/>
    <connection from="-315263227#1" to="-457189847#2" fromLane="0" toLane="0" tl="cluster_12331496839_124168255_1738029688_8016223992_#1more" linkIndex="15"/>
    <connection from="-315263227#1" to="37854261" fromLane="0" toLane="0" tl="cluster_12331496839_124168255_1738029688_8016223992_#1more" linkIndex="16"/>
    <connection from="-315263227#1" to="315263227#1" fromLane="0" toLane="0" tl="cluster_12331496839_124168255_1738029688_8016223992_#1more" linkIndex="17"/>
    <connection from="-315263227#4" to="-315263227#3" fromLane="0" toLane="0" tl="4362345046" linkIndex="0"/>
    <connection from="-315263227#5" to="-315263227#4" fromLane="0" toLane="0" tl="4362345049" linkIndex="0"/>
    <connection from="-323995388#2" to="-323995388#0" fromLane="0" toLane="0" tl="cluster_2129468806_6865162300" linkIndex="0"/>
    <connection from="-32538630" to="38250447" fromLane="0" toLane="0" tl="cluster_131851080_574428352" linkIndex="7"/>
    <connection from="-32538630" to="-701009078" fromLane="0" toLane="0" tl="cluster_131851080_574428352" linkIndex="8"/>
    <connection from="-32538630" to="-701009078" fromLane="1" toLane="1" tl="cluster_131851080_574428352" linkIndex="9"/>
    <connection from="-32538630" to="32538630" fromLane="1" toLane="1" tl="cluster_131851080_574428352" linkIndex="10"/>
    <connection from="-37995855" to="-586412517" fromLane="0" toLane="0" tl="444026651" linkIndex="5"/>
    <connection from="-37995855" to="-1249682050" fromLane="0" toLane="0" tl="444026651" linkIndex="6"/>
    <connection from="-37995855" to="-1249682048#1" fromLane="0" toLane="0" tl="444026651" linkIndex="7"/>
    <connection from="-37995855" to="190247221" fromLane="0" toLane="0" tl="444026651" linkIndex="8"/>
    <connection from="-37995855" to="37995855" fromLane="0" toLane="0" tl="444026651" linkIndex="9"/>
    <connection from="-38536424#2" to="-457189847#2" fromLane="0" toLane="0" tl="cluster_12331496839_124168255_1738029688_8016223992_#1more" linkIndex="24"/>
    <connection from="-38536424#2" to="37854261" fromLane="0" toLane="0" tl="cluster_12331496839_124168255_1738029688_8016223992_#1more" linkIndex="25"/>
    <connection from="-38536424#2" to="315263227#1" fromLane="0" toLane="0" tl="cluster_12331496839_124168255_1738029688_8016223992_#1more" linkIndex="26"/>
    <connection from="-38536424#2" to="-1000643420" fromLane="0" toLane="0" tl="cluster_12331496839_124168255_1738029688_8016223992_#1more" linkIndex="27"/>
    <connection from="-38536424#2" to="453245655#0" fromLane="0" toLane="0" tl="cluster_12331496839_124168255_1738029688_8016223992_#1more" linkIndex="28"/>
    <connection from="-38536424#2" to="38536424#0" fromLane="0" toLane="0" tl="cluster_12331496839_124168255_1738029688_8016223992_#1more" linkIndex="29"/>
    <connection from="-438797376" to="-925263684#0" fromLane="0" toLane="0" tl="cluster_2129468806_6865162300" linkIndex="-1"/>
    <connection from="-440560692#0" to="-733118092#0" fromLane="0" toLane="0" tl="cluster_2129468806_6865162300" linkIndex="-1"/>
    <connection from="-453245655#2" to="38536424#0" fromLane="0" toLane="0" tl="cluster_12331496839_124168255_1738029688_8016223992_#1more" linkIndex="0"/>
    <connection from="-453245655#2" to="-457189847#2" fromLane="0" toLane="0" tl="cluster_12331496839_124168255_1738029688_8016223992_#1more" linkIndex="1"/>
    <connection from="-453245655#2" to="37854261" fromLane="0" toLane="0" tl="cluster_12331496839_124168255_1738029688_8016223992_#1more" linkIndex="2"/>
    <connection from="-453245655#2" to="315263227#1" fromLane="0" toLane="0" tl="cluster_12331496839_124168255_1738029688_8016223992_#1more" linkIndex="3"/>
    <connection from="-453245655#2" to="-1000643420" fromLane="0" toLane="0" tl="cluster_12331496839_124168255_1738029688_8016223992_#1more" linkIndex="4"/>
    <connection from="-453245655#2" to="453245655#0" fromLane="0" toLane="0" tl="cluster_12331496839_124168255_1738029688_8016223992_#1more" linkIndex="5"/>
    <connection from="-459251293#1" to="-440557653#0" fromLane="0" toLane="0" tl="cluster_10286333250_195488881" linkIndex="5"/>
    <connection from="-459251293#1" to="754353683" fromLane="0" toLane="0" tl="cluster_10286333250_195488881" linkIndex="6"/>
    <connection from="-459251293#1" to="-578531304#1" fromLane="1" toLane="0" tl="cluster_10286333250_195488881" linkIndex="7"/>
    <connection from="-599886752#1" to="396759843#0" fromLane="0" toLane="0" tl="joinedS_3995929395_cluster_3995929391_430920482" linkIndex="5"/>
    <connection from="-599886752#1" to="-172682166#1" fromLane="0" toLane="0" tl="joinedS_3995929395_cluster_3995929391_430920482" linkIndex="6"/>
    <connection from="-599886752#1" to="599886752#0" fromLane="0" toLane="1" tl="joinedS_3995929395_cluster_3995929391_430920482" linkIndex="7"/>
    <connection from="1000643420" to="453245655#0" fromLane="0" toLane="0" tl="cluster_12331496839_124168255_1738029688_8016223992_#1more" linkIndex="6"/>
    <connection from="1000643420" to="38536424#0" fromLane="0" toLane="0" tl="cluster_12331496839_124168255_1738029688_8016223992_#1more" linkIndex="7"/>
    <connection from="1000643420" to="-457189847#2" fromLane="0" toLane="0" tl="cluster_12331496839_124168255_1738029688_8016223992_#1more" linkIndex="8"/>
    <connection from="1000643420" to="37854261" fromLane="0" toLane="0" tl="cluster_12331496839_124168255_1738029688_8016223992_#1more" linkIndex="9"/>
    <connection from="1000643420" to="315263227#1" fromLane="0" toLane="0" tl="cluster_12331496839_124168255_1738029688_8016223992_#1more" linkIndex="10"/>
    <connection from="1000643420" to="-1000643420" fromLane="0" toLane="0" tl="cluster_12331496839_124168255_1738029688_8016223992_#1more" linkIndex="11"/>
    <connection from="1070706139" to="-701009078" fromLane="0" toLane="0" tl="cluster_131851080_574428352" linkIndex="4"/>
    <connection from="1070706139" to="32538630" fromLane="0" toLane="1" tl="cluster_131851080_574428352" linkIndex="5"/>
    <connection from="1070706139" to="38250447" fromLane="0" toLane="0" tl="cluster_131851080_574428352" linkIndex="6"/>
    <connection from="1078011422" to="-406195542" fromLane="0" toLane="0" tl="131850567" linkIndex="12"/>
    <connection from="1078011422" to="18931823#0" fromLane="0" toLane="0" tl="131850567" linkIndex="13"/>
    <connection from="1078011422" to="-137390626" fromLane="0" toLane="0" tl="131850567" linkIndex="14"/>
    <connection from="1078011422" to="-1078011422" fromLane="0" toLane="0" tl="131850567" linkIndex="15"/>
    <connection from="1249682048#1" to="190247221" fromLane="0" toLane="0" tl="444026651" linkIndex="10"/>
    <connection from="1249682048#1" to="37995855" fromLane="0" toLane="0" tl="444026651" linkIndex="11"/>
    <connection from="1249682048#1" to="-586412517" fromLane="0" toLane="0" tl="444026651" linkIndex="12"/>
    <connection from="1249682048#1" to="-1249682050" fromLane="0" toLane="0" tl="444026651" linkIndex="13"/>
    <connection from="1249682048#1" to="-1249682048#1" fromLane="0" toLane="0" tl="444026651" linkIndex="14"/>
    <connection from="1249682050" to="-1249682048#1" fromLane="0" toLane="0" tl="444026651" linkIndex="15"/>
    <connection from="1249682050" to="190247221" fromLane="0" toLane="0" tl="444026651" linkIndex="16"/>
    <connection from="1249682050" to="37995855" fromLane="0" toLane="0" tl="444026651" linkIndex="17"/>
    <connection from="1249682050" to="-586412517" fromLane="0" toLane="0" tl="444026651" linkIndex="18"/>
    <connection from="1249682050" to="-1249682050" fromLane="0" toLane="0" tl="444026651" linkIndex="19"/>
    <connection from="1357569475#0" to="29260616#1" fromLane="0" toLane="0" tl="GS_cluster_195700710_2128950904" linkIndex="4"/>
    <connection from="1357569475#0" to="202944390" fromLane="0" toLane="0" tl="GS_cluster_195700710_2128950904" linkIndex="5"/>
    <connection from="1357569475#0" to="-29261256#2" fromLane="0" toLane="0" tl="GS_cluster_195700710_2128950904" linkIndex="6"/>
    <connection from="1357569475#0" to="29411353" fromLane="0" toLane="0" tl="GS_cluster_195700710_2128950904" linkIndex="7"/>
    <connection from="1370057325#0" to="172682233#1" fromLane="0" toLane="0" tl="GS_cluster_195700681_2128950922" linkIndex="4"/>
    <connection from="1370057325#0" to="1370057325#2" fromLane="0" toLane="0" tl="GS_cluster_195700681_2128950922" linkIndex="5"/>
    <connection from="1370057325#0" to="1370057325#2" fromLane="1" toLane="1" tl="GS_cluster_195700681_2128950922" linkIndex="6"/>
    <connection from="1370057325#0" to="-427195175#3" fromLane="1" toLane="0" tl="GS_cluster_195700681_2128950922" linkIndex="7"/>
    <connection from="1370057325#0" to="172682163#2" fromLane="1" toLane="0" tl="GS_cluster_195700681_2128950922" linkIndex="8"/>
    <connection from="137390626" to="-1078011422" fromLane="0" toLane="0" tl="131850567" linkIndex="0"/>
    <connection from="137390626" to="-406195542" fromLane="0" toLane="0" tl="131850567" linkIndex="1"/>
    <connection from="137390626" to="18931823#0" fromLane="0" toLane="0" tl="131850567" linkIndex="2"/>
    <connection from="137390626" to="-137390626" fromLane="0" toLane="0" tl="131850567" linkIndex="3"/>
    <connection from="151204889#0" to="151204889#1" fromLane="0" toLane="0" tl="2129468735" linkIndex="0"/>
    <connection from="172682163#0" to="-427195175#3" fromLane="0" toLane="0" tl="GS_cluster_195700681_2128950922" linkIndex="13"/>
    <connection from="172682163#0" to="172682163#2" fromLane="0" toLane="0" tl="GS_cluster_195700681_2128950922" linkIndex="14"/>
    <connection from="172682163#0" to="172682233#1" fromLane="0" toLane="0" tl="GS_cluster_195700681_2128950922" linkIndex="15"/>
    <connection from="172682163#0" to="1370057325#2" fromLane="0" toLane="1" tl="GS_cluster_195700681_2128950922" linkIndex="16"/>
    <connection from="172682166#0" to="599886752#0" fromLane="0" toLane="0" tl="joinedS_3995929395_cluster_3995929391_430920482" linkIndex="8"/>
    <connection from="172682166#0" to="599886752#0" fromLane="0" toLane="1" tl="joinedS_3995929395_cluster_3995929391_430920482" linkIndex="9"/>
    <connection from="172682166#0" to="396759843#0" fromLane="0" toLane="0" tl="joinedS_3995929395_cluster_3995929391_430920482" linkIndex="10"/>
    <connection from="172682166#0" to="-172682166#1" fromLane="0" toLane="0" tl="joinedS_3995929395_cluster_3995929391_430920482" linkIndex="11"/>
    <connection from="172682219#0" to="172682219#2" fromLane="0" toLane="0" tl="joinedS_3995929395_cluster_3995929391_430920482" linkIndex="0"/>
    <connection from="18896461#1" to="18931823#0" fromLane="0" toLane="0" tl="131850567" linkIndex="8"/>
    <connection from="18896461#1" to="-137390626" fromLane="0" toLane="0" tl="131850567" linkIndex="9"/>
    <connection from="18896461#1" to="-1078011422" fromLane="0" toLane="0" tl="131850567" linkIndex="10"/>
    <connection from="18896461#1" to="-406195542" fromLane="0" toLane="0" tl="131850567" linkIndex="11"/>
    <connection from="18913062#4" to="1102648499" fromLane="0" toLane="0" tl="cluster_195698270_3995098876_3995098879" linkIndex="9"/>
    <connection from="18913062#4" to="-18932178#6" fromLane="0" toLane="0" tl="cluster_195698270_3995098876_3995098879" linkIndex="10"/>
    <connection from="18913062#4" to="-18913062#5" fromLane="0" toLane="0" tl="cluster_195698270_3995098876_3995098879" linkIndex="11"/>
    <connection from="18932178#2" to="18932178#4" fromLane="0" toLane="0" tl="cluster_1835630369_195488888" linkIndex="0"/>
    <connection from="18932178#2" to="172682222" fromLane="0" toLane="0" tl="cluster_1835630369_195488888" linkIndex="1"/>
    <connection from="18932178#2" to="-18932178#2" fromLane="0" toLane="0" tl="cluster_1835630369_195488888" linkIndex="2"/>
    <connection from="18932178#5" to="-18913062#5" fromLane="0" toLane="0" tl="cluster_195698270_3995098876_3995098879" linkIndex="0"/>
    <connection from="18932178#5" to="1102648499" fromLane="0" toLane="0" tl="cluster_195698270_3995098876_3995098879" linkIndex="1"/>
    <connection from="18932178#5" to="-18932178#6" fromLane="0" toLane="0" tl="cluster_195698270_3995098876_3995098879" linkIndex="2"/>
    <connection from="202944392#0" to="-29261256#2" fromLane="0" toLane="0" tl="GS_cluster_195700710_2128950904" linkIndex="12"/>
    <connection from="202944392#0" to="29411353" fromLane="1" toLane="0" tl="GS_cluster_195700710_2128950904" linkIndex="13"/>
    <connection from="202944392#0" to="29260616#1" fromLane="2" toLane="0" tl="GS_cluster_195700710_2128950904" linkIndex="14"/>
    <connection from="202944392#0" to="202944390" fromLane="2" toLane="0" tl="GS_cluster_195700710_2128950904" linkIndex="15"/>
    <connection from="202985088#0" to="202985088#2" fromLane="0" toLane="0" tl="2129468735" linkIndex="-1"/>
    <connection from="202985097#0" to="202985097#1" fromLane="0" toLane="0" tl="2129468652" linkIndex="-1"/>
    <connection from="202985138#0" to="202985138#1" fromLane="0" toLane="0" tl="2129468652" linkIndex="0"/>
    <connection from="29261256#1" to="29411353" fromLane="0" toLane="0" tl="GS_cluster_195700710_2128950904" linkIndex="8"/>
    <connection from="29261256#1" to="29260616#1" fromLane="0" toLane="0" tl="GS_cluster_195700710_2128950904" linkIndex="9"/>
    <connection from="29261256#1" to="202944390" fromLane="0" toLane="0" tl="GS_cluster_195700710_2128950904" linkIndex="10"/>
    <connection from="29261256#1" to="-29261256#2" fromLane="0" toLane="0" tl="GS_cluster_195700710_2128950904" linkIndex="11"/>
    <connection from="315263227#3" to="315263227#4" fromLane="0" toLane="0" tl="4362345046" linkIndex="1"/>
    <connection from="315263227#4" to="315263227#5" fromLane="0" toLane="0" tl="4362345049" linkIndex="1"/>
    <connection from="323995388#0" to="323995388#2" fromLane="0" toLane="0" tl="cluster_2129468806_6865162300" linkIndex="1"/>
    <connection from="396683147#0" to="1102648499" fromLane="0" toLane="0" tl="cluster_195698270_3995098876_3995098879" linkIndex="6"/>
    <connection from="396683147#0" to="-18932178#6" fromLane="0" toLane="0" tl="cluster_195698270_3995098876_3995098879" linkIndex="7"/>
    <connection from="396683147#0" to="-18913062#5" fromLane="0" toLane="0" tl="cluster_195698270_3995098876_3995098879" linkIndex="8"/>
    <connection from="396759840#0" to="-172682166#1" fromLane="0" toLane="0" tl="joinedS_3995929395_cluster_3995929391_430920482" linkIndex="2"/>
    <connection from="396759840#0" to="599886752#0" fromLane="0" toLane="1" tl="joinedS_3995929395_cluster_3995929391_430920482" linkIndex="3"/>
    <connection from="396759840#0" to="396759843#0" fromLane="0" toLane="0" tl="joinedS_3995929395_cluster_3995929391_430920482" linkIndex="4"/>
    <connection from="396759843#0" to="172682219#2" fromLane="0" toLane="0" tl="joinedS_3995929395_cluster_3995929391_430920482" linkIndex="1"/>
    <connection from="427195175#2" to="172682163#2" fromLane="0" toLane="0" tl="GS_cluster_195700681_2128950922" linkIndex="9"/>
    <connection from="427195175#2" to="172682233#1" fromLane="0" toLane="0" tl="GS_cluster_195700681_2128950922" linkIndex="10"/>
    <connection from="427195175#2" to="1370057325#2" fromLane="0" toLane="1" tl="GS_cluster_195700681_2128950922" linkIndex="11"/>
    <connection from="427195175#2" to="-427195175#3" fromLane="0" toLane="0" tl="GS_cluster_195700681_2128950922" linkIndex="12"/>
    <connection from="438491432#1" to="438491432#2" fromLane="0" toLane="0" tl="4362345046" linkIndex="-1"/>
    <connection from="438491459#1" to="438491459#2" fromLane="0" toLane="0" tl="4362345049" linkIndex="-1"/>
    <connection from="440557653#0" to="754353683" fromLane="0" toLane="0" tl="cluster_10286333250_195488881" linkIndex="0"/>
    <connection from="440557653#0" to="18934349#0" fromLane="0" toLane="0" tl="cluster_10286333250_195488881" linkIndex="1"/>
    <connection from="440557653#0" to="-578531304#1" fromLane="0" toLane="0" tl="cluster_10286333250_195488881" linkIndex="2"/>
    <connection from="440557653#0" to="459251293#0" fromLane="1" toLane="0" tl="cluster_10286333250_195488881" linkIndex="3"/>
    <connection from="440557653#0" to="-440557653#0" fromLane="1" toLane="1" tl="cluster_10286333250_195488881" linkIndex="4"/>
    <connection from="440557657#1" to="29348604#0" fromLane="0" toLane="0" tl="GS_cluster_132247240_3995929379" linkIndex="3"/>
    <connection from="440557657#1" to="13967301#0" fromLane="0" toLane="0" tl="GS_cluster_132247240_3995929379" linkIndex="4"/>
    <connection from="440557657#1" to="13967301#0" fromLane="1" toLane="1" tl="GS_cluster_132247240_3995929379" linkIndex="5"/>
    <connection from="440557657#1" to="791076362" fromLane="1" toLane="1" tl="GS_cluster_132247240_3995929379" linkIndex="6"/>
    <connection from="457189847#0" to="37854261" fromLane="0" toLane="0" tl="cluster_12331496839_124168255_1738029688_8016223992_#1more" linkIndex="18"/>
    <connection from="457189847#0" to="315263227#1" fromLane="0" toLane="0" tl="cluster_12331496839_124168255_1738029688_8016223992_#1more" linkIndex="19"/>