<?xml version="1.0" encoding="UTF-8"?>

<!-- generated on 2025-04-08 23:56:44 by Eclipse SUMO netconvert Version 1.19.0
<configuration xmlns:xsi="http://www.w3.org/2001/XMLSchema-instance" xsi:noNamespaceSchemaLocation="http://sumo.dlr.de/xsd/netconvertConfiguration.xsd">

    <input>
        <sumo-net-file value="montereau_fault_yonne/montereau_fault_yonne.net.xml"/>
    </input>

    <output>
        <plain-output-prefix value="montereau_fault_yonne/montereau_fault_yonne"/>
    </output>

    <processing>
        <geometry.min-radius.fix.railways value="false"/>
        <geometry.max-grade.fix value="false"/>
        <offset.disable-normalization value="true"/>
        <lefthand value="0"/>
    </processing>

    <tls_building>
        <tls.ignore-internal-junction-jam value="1"/>
    </tls_building>

    <junctions>
        <no-turnarounds value="true"/>
        <junctions.corner-detail value="5"/>
        <junctions.limit-turn-speed value="5.50"/>
        <rectangular-lane-cut value="0"/>
    </junctions>

    <pedestrian>
        <walkingareas value="0"/>
    </pedestrian>

</configuration>
-->

<connections version="1.16" xmlns:xsi="http://www.w3.org/2001/XMLSchema-instance" xsi:noNamespaceSchemaLocation="http://sumo.dlr.de/xsd/connections_file.xsd">
    <connection from="-1000641162" to="1000641162" fromLane="0" toLane="0"/>

    <connection from="-1000641163#0" to="1000641163#0" fromLane="0" toLane="0"/>

    <connection from="-1000641163#1" to="-1000641165#0" fromLane="0" toLane="0"/>
    <connection from="-1000641163#1" to="-1000641163#0" fromLane="0" toLane="0"/>
    <connection from="-1000641163#1" to="1000641165#1" fromLane="0" toLane="0"/>
    <connection from="-1000641163#1" to="1000641163#1" fromLane="0" toLane="0"/>

    <connection from="-1000641164#0" to="1000641164#0" fromLane="0" toLane="0"/>

    <connection from="-1000641164#1" to="-1000641165#1" fromLane="0" toLane="0"/>
    <connection from="-1000641164#1" to="-1000641164#0" fromLane="0" toLane="0"/>
    <connection from="-1000641164#1" to="1000641164#1" fromLane="0" toLane="0"/>

    <connection from="-1000641165#0" to="-427974169#0" fromLane="0" toLane="0"/>
    <connection from="-1000641165#0" to="-1000641162" fromLane="0" toLane="0"/>
    <connection from="-1000641165#0" to="427974169#1" fromLane="0" toLane="0"/>
    <connection from="-1000641165#0" to="1000641165#0" fromLane="0" toLane="0"/>

    <connection from="-1000641165#1" to="1000641163#1" fromLane="0" toLane="0"/>
    <connection from="-1000641165#1" to="-1000641165#0" fromLane="0" toLane="0"/>
    <connection from="-1000641165#1" to="-1000641163#0" fromLane="0" toLane="0"/>
    <connection from="-1000641165#1" to="1000641165#1" fromLane="0" toLane="0"/>

    <connection from="-1000641167" to="-37856872#0" fromLane="0" toLane="0"/>
    <connection from="-1000641167" to="37856872#1" fromLane="0" toLane="0"/>
    <connection from="-1000641167" to="1000641167" fromLane="0" toLane="0"/>

    <connection from="-1000641168" to="-37856872#1" fromLane="0" toLane="0"/>
    <connection from="-1000641168" to="37856872#2" fromLane="0" toLane="0"/>
    <connection from="-1000641168" to="1000641168" fromLane="0" toLane="0"/>

    <connection from="-1000641170" to="1000641170" fromLane="0" toLane="0"/>

    <connection from="-1000641171" to="1000641171" fromLane="0" toLane="0"/>

    <connection from="-1000641172#0" to="-1000641172#1" fromLane="0" toLane="0"/>

    <connection from="-1000641172#1" to="-1000641175#1" fromLane="0" toLane="0"/>
    <connection from="-1000641172#1" to="-1000641172#0" fromLane="0" toLane="0"/>
    <connection from="-1000641172#1" to="1000641172#1" fromLane="0" toLane="0"/>

    <connection from="-1000641173" to="1000641174#1" fromLane="0" toLane="0"/>
    <connection from="-1000641173" to="-1000641174#0" fromLane="0" toLane="0"/>
    <connection from="-1000641173" to="1000641173" fromLane="0" toLane="0"/>

    <connection from="-1000641174#0" to="-1000641175#0" fromLane="0" toLane="0"/>
    <connection from="-1000641174#0" to="1000641175#1" fromLane="0" toLane="0"/>
    <connection from="-1000641174#0" to="1000641174#0" fromLane="0" toLane="0"/>

    <connection from="-1000641174#1" to="-1000641174#0" fromLane="0" toLane="0"/>
    <connection from="-1000641174#1" to="1000641173" fromLane="0" toLane="0"/>
    <connection from="-1000641174#1" to="1000641174#1" fromLane="0" toLane="0"/>

    <connection from="-1000641175#0" to="37992791#3" fromLane="0" toLane="0"/>
    <connection from="-1000641175#0" to="1000641175#0" fromLane="0" toLane="0"/>

    <connection from="-1000641175#1" to="1000641174#0" fromLane="0" toLane="0"/>
    <connection from="-1000641175#1" to="-1000641175#0" fromLane="0" toLane="0"/>
    <connection from="-1000641175#1" to="1000641175#1" fromLane="0" toLane="0"/>

    <connection from="-1000641176" to="37992791#2" fromLane="0" toLane="0"/>
    <connection from="-1000641176" to="1000641176" fromLane="0" toLane="0"/>

    <connection from="-1000641177#0" to="1000641177#0" fromLane="0" toLane="0"/>

    <connection from="-1000641177#1" to="1000641179#3" fromLane="0" toLane="0"/>
    <connection from="-1000641177#1" to="-1000641177#0" fromLane="0" toLane="0"/>
    <connection from="-1000641177#1" to="-1000641179#2" fromLane="0" toLane="0"/>
    <connection from="-1000641177#1" to="1000641177#1" fromLane="0" toLane="0"/>

    <connection from="-1000641178#0" to="1000641179#1" fromLane="0" toLane="0"/>
    <connection from="-1000641178#0" to="-1000641179#0" fromLane="0" toLane="0"/>
    <connection from="-1000641178#0" to="1000641178#0" fromLane="0" toLane="0"/>

    <connection from="-1000641178#1" to="-1000641179#1" fromLane="0" toLane="0"/>
    <connection from="-1000641178#1" to="-1000641178#0" fromLane="0" toLane="0"/>
    <connection from="-1000641178#1" to="1000641179#2" fromLane="0" toLane="0"/>
    <connection from="-1000641178#1" to="1000641178#1" fromLane="0" toLane="0"/>

    <connection from="-1000641179#0" to="37992791#1" fromLane="0" toLane="0"/>
    <connection from="-1000641179#0" to="1000641179#0" fromLane="0" toLane="0"/>

    <connection from="-1000641179#1" to="-1000641179#0" fromLane="0" toLane="0"/>
    <connection from="-1000641179#1" to="1000641178#0" fromLane="0" toLane="0"/>
    <connection from="-1000641179#1" to="1000641179#1" fromLane="0" toLane="0"/>

    <connection from="-1000641179#2" to="1000641178#1" fromLane="0" toLane="0"/>
    <connection from="-1000641179#2" to="-1000641179#1" fromLane="0" toLane="0"/>
    <connection from="-1000641179#2" to="-1000641178#0" fromLane="0" toLane="0"/>
    <connection from="-1000641179#2" to="1000641179#2" fromLane="0" toLane="0"/>

    <connection from="-1000641179#3" to="-1000641177#0" fromLane="0" toLane="0"/>
    <connection from="-1000641179#3" to="-1000641179#2" fromLane="0" toLane="0"/>
    <connection from="-1000641179#3" to="1000641177#1" fromLane="0" toLane="0"/>
    <connection from="-1000641179#3" to="1000641179#3" fromLane="0" toLane="0"/>

    <connection from="-1000641180" to="-202973365#1" fromLane="0" toLane="0"/>
    <connection from="-1000641180" to="202973365#2" fromLane="0" toLane="0"/>
    <connection from="-1000641180" to="1000641180" fromLane="0" toLane="0"/>

    <connection from="-1000641181" to="-202973365#0" fromLane="0" toLane="0"/>
    <connection from="-1000641181" to="202973365#1" fromLane="0" toLane="0"/>
    <connection from="-1000641181" to="1000641181" fromLane="0" toLane="0"/>

    <connection from="-1000641183#0" to="1000641183#0" fromLane="0" toLane="0"/>

    <connection from="-1000641183#1" to="-1000641183#0" fromLane="0" toLane="0"/>
    <connection from="-1000641183#1" to="-1000641184" fromLane="0" toLane="0"/>
    <connection from="-1000641183#1" to="1000641183#1" fromLane="0" toLane="0"/>

    <connection from="-1000641184" to="18913057#2" fromLane="0" toLane="0"/>
    <connection from="-1000641184" to="1000641184" fromLane="0" toLane="0"/>

    <connection from="-1000641199" to="-190247239#0" fromLane="0" toLane="0"/>
    <connection from="-1000641199" to="190247239#1" fromLane="0" toLane="0"/>
    <connection from="-1000641199" to="1000641199" fromLane="0" toLane="0"/>

    <connection from="-1000641200#0" to="190247213#2" fromLane="0" toLane="0"/>
    <connection from="-1000641200#0" to="-190247213#1" fromLane="0" toLane="0"/>
    <connection from="-1000641200#0" to="1000641200#0" fromLane="0" toLane="0"/>

    <connection from="-1000641200#1" to="-1000641200#0" fromLane="0" toLane="0"/>
    <connection from="-1000641200#1" to="1000641200#1" fromLane="0" toLane="0"/>

    <connection from="-1000641201" to="-190247213#2" fromLane="0" toLane="0"/>
    <connection from="-1000641201" to="190247213#3" fromLane="0" toLane="0"/>
    <connection from="-1000641201" to="1000641201" fromLane="0" toLane="0"/>

    <connection from="-1000641202#0" to="1000641202#0" fromLane="0" toLane="0"/>

    <connection from="-1000641202#1" to="-1000641202#0" fromLane="0" toLane="0"/>
    <connection from="-1000641202#1" to="1000641202#1" fromLane="0" toLane="0"/>

    <connection from="-1000641202#2" to="-190247213#3" fromLane="0" toLane="0"/>
    <connection from="-1000641202#2" to="-1000641202#1" fromLane="0" toLane="0"/>
    <connection from="-1000641202#2" to="190247213#4" fromLane="0" toLane="0"/>
    <connection from="-1000641202#2" to="1000641202#2" fromLane="0" toLane="0"/>

    <connection from="-1000641203" to="-190247213#4" fromLane="0" toLane="0"/>
    <connection from="-1000641203" to="190247213#5" fromLane="0" toLane="0"/>
    <connection from="-1000641203" to="1000641203" fromLane="0" toLane="0"/>

    <connection from="-1000643418" to="18896457#1" fromLane="0" toLane="0"/>
    <connection from="-1000643418" to="-18896457#0" fromLane="0" toLane="0"/>
    <connection from="-1000643418" to="1000643418" fromLane="0" toLane="0"/>

    <connection from="-1000643420" to="1000643420" fromLane="0" toLane="0"/>

    <connection from="-1000643422" to="1000643423#1" fromLane="0" toLane="0"/>
    <connection from="-1000643422" to="-1000643423#0" fromLane="0" toLane="0"/>
    <connection from="-1000643422" to="1000643422" fromLane="0" toLane="0"/>

    <connection from="-1000643423#0" to="453245655#3" fromLane="0" toLane="0"/>
    <connection from="-1000643423#0" to="-453245655#2" fromLane="0" toLane="0"/>
    <connection from="-1000643423#0" to="1000643423#0" fromLane="0" toLane="0"/>

    <connection from="-1000643423#1" to="-1000643423#0" fromLane="0" toLane="0"/>
    <connection from="-1000643423#1" to="1000643422" fromLane="0" toLane="0"/>
    <connection from="-1000643423#1" to="1000643423#1" fromLane="0" toLane="0"/>

    <connection from="-1000643425" to="1000643425" fromLane="0" toLane="0"/>

    <connection from="-1000643426" to="-1000643428#1" fromLane="0" toLane="0"/>
    <connection from="-1000643426" to="1000643428#2" fromLane="0" toLane="0"/>
    <connection from="-1000643426" to="1000643426" fromLane="0" toLane="0"/>

    <connection from="-1000643427" to="1000643428#3" fromLane="0" toLane="0"/>
    <connection from="-1000643427" to="-1000643428#2" fromLane="0" toLane="0"/>
    <connection from="-1000643427" to="1000643427" fromLane="0" toLane="0"/>

    <connection from="-1000643428#0" to="1000643429#1" fromLane="0" toLane="0"/>
    <connection from="-1000643428#0" to="-1000643429#0" fromLane="0" toLane="0"/>
    <connection from="-1000643428#0" to="1000643428#0" fromLane="0" toLane="0"/>

    <connection from="-1000643428#1" to="1000643429#2" fromLane="0" toLane="0"/>
    <connection from="-1000643428#1" to="-1000643429#1" fromLane="0" toLane="0"/>
    <connection from="-1000643428#1" to="-1000643428#0" fromLane="0" toLane="0"/>
    <connection from="-1000643428#1" to="1000643428#1" fromLane="0" toLane="0"/>

    <connection from="-1000643428#2" to="1000643426" fromLane="0" toLane="0"/>
    <connection from="-1000643428#2" to="-1000643428#1" fromLane="0" toLane="0"/>
    <connection from="-1000643428#2" to="1000643428#2" fromLane="0" toLane="0"/>

    <connection from="-1000643428#3" to="-1000643428#2" fromLane="0" toLane="0"/>
    <connection from="-1000643428#3" to="1000643427" fromLane="0" toLane="0"/>
    <connection from="-1000643428#3" to="1000643428#3" fromLane="0" toLane="0"/>

    <connection from="-1000643429#0" to="699034621#1" fromLane="0" toLane="0"/>
    <connection from="-1000643429#0" to="-699034621#0" fromLane="0" toLane="0"/>
    <connection from="-1000643429#0" to="1000643429#0" fromLane="0" toLane="0"/>

    <connection from="-1000643429#1" to="-1000643429#0" fromLane="0" toLane="0"/>
    <connection from="-1000643429#1" to="1000643428#0" fromLane="0" toLane="0"/>
    <connection from="-1000643429#1" to="1000643429#1" fromLane="0" toLane="0"/>

    <connection from="-1000643429#2" to="-1000643429#1" fromLane="0" toLane="0"/>
    <connection from="-1000643429#2" to="-1000643428#0" fromLane="0" toLane="0"/>
    <connection from="-1000643429#2" to="1000643428#1" fromLane="0" toLane="0"/>
    <connection from="-1000643429#2" to="1000643429#2" fromLane="0" toLane="0"/>

    <connection from="-1030420532#0" to="-202973360" fromLane="0" toLane="0"/>
    <connection from="-1030420532#0" to="-44739317" fromLane="0" toLane="0"/>
    <connection from="-1030420532#0" to="1030420532#0" fromLane="0" toLane="0"/>

    <connection from="-1030420532#1" to="-1030420532#0" fromLane="0" toLane="0"/>
    <connection from="-1030420532#1" to="44739330#0" fromLane="0" toLane="0"/>
    <connection from="-1030420532#1" to="1030420532#1" fromLane="0" toLane="0"/>

    <connection from="-1030420532#2" to="-1030420532#1" fromLane="0" toLane="0"/>

    <connection from="-1052730668" to="-202985055#2" fromLane="0" toLane="0"/>
    <connection from="-1052730668" to="202985055#3" fromLane="0" toLane="0"/>
    <connection from="-1052730668" to="1052730668" fromLane="0" toLane="0"/>

    <connection from="-1054797778" to="-257045030#0" fromLane="0" toLane="0"/>

    <connection from="-1055363757" to="137971470#1" fromLane="0" toLane="0"/>
    <connection from="-1055363757" to="-137971470#0" fromLane="0" toLane="0"/>
    <connection from="-1055363757" to="1055363757" fromLane="0" toLane="0"/>

    <connection from="-1055363758" to="137971470#2" fromLane="0" toLane="0"/>
    <connection from="-1055363758" to="-137971470#1" fromLane="0" toLane="0"/>
    <connection from="-1055363758" to="1055363758" fromLane="0" toLane="0"/>

    <connection from="-1055363760" to="427195113#2" fromLane="0" toLane="0"/>
    <connection from="-1055363760" to="-427195113#1" fromLane="0" toLane="0"/>
    <connection from="-1055363760" to="1055363760" fromLane="0" toLane="0"/>

    <connection from="-1057732879" to="-151204951#5" fromLane="0" toLane="0"/>
    <connection from="-1057732879" to="151204951#6" fromLane="0" toLane="0"/>
    <connection from="-1057732879" to="1057732879" fromLane="0" toLane="0"/>

    <connection from="-1057963229" to="1057963229" fromLane="0" toLane="0"/>

    <connection from="-1057963230" to="1057963230" fromLane="0" toLane="0"/>

    <connection from="-1057963232" to="1057963233#1" fromLane="0" toLane="0"/>
    <connection from="-1057963232" to="-1057963233#0" fromLane="0" toLane="0"/>
    <connection from="-1057963232" to="1057963232" fromLane="0" toLane="0"/>

    <connection from="-1057963233#0" to="1057963233#0" fromLane="0" toLane="0"/>

    <connection from="-1057963233#1" to="-1057963233#0" fromLane="0" toLane="0"/>
    <connection from="-1057963233#1" to="1057963232" fromLane="0" toLane="0"/>
    <connection from="-1057963233#1" to="1057963233#1" fromLane="0" toLane="0"/>

    <connection from="-1057963234" to="137971470#5" fromLane="0" toLane="0"/>
    <connection from="-1057963234" to="-137971470#4" fromLane="0" toLane="0"/>
    <connection from="-1057963234" to="1057963234" fromLane="0" toLane="0"/>

    <connection from="-1057963235#0" to="1057963235#0" fromLane="0" toLane="0"/>

    <connection from="-1057963235#1" to="-1057963236" fromLane="0" toLane="0"/>
    <connection from="-1057963235#1" to="-1057963235#0" fromLane="0" toLane="0"/>
    <connection from="-1057963235#1" to="1057963235#1" fromLane="0" toLane="0"/>

    <connection from="-1057963236" to="-137971468#0" fromLane="0" toLane="0"/>
    <connection from="-1057963236" to="137971468#1" fromLane="0" toLane="0"/>
    <connection from="-1057963236" to="1057963236" fromLane="0" toLane="0"/>

    <connection from="-1057963237" to="1057963239#2" fromLane="0" toLane="0"/>
    <connection from="-1057963237" to="-1057963239#1" fromLane="0" toLane="0"/>
    <connection from="-1057963237" to="1057963237" fromLane="0" toLane="0"/>

    <connection from="-1057963238" to="1057963239#1" fromLane="0" toLane="0"/>
    <connection from="-1057963238" to="-1057963239#0" fromLane="0" toLane="0"/>
    <connection from="-1057963238" to="1057963238" fromLane="0" toLane="0"/>

    <connection from="-1057963239#0" to="-203098147#0" fromLane="0" toLane="0"/>
    <connection from="-1057963239#0" to="203098147#1" fromLane="0" toLane="0"/>
    <connection from="-1057963239#0" to="1057963239#0" fromLane="0" toLane="0"/>

    <connection from="-1057963239#1" to="-1057963239#0" fromLane="0" toLane="0"/>
    <connection from="-1057963239#1" to="1057963238" fromLane="0" toLane="0"/>
    <connection from="-1057963239#1" to="1057963239#1" fromLane="0" toLane="0"/>

    <connection from="-1057963239#2" to="-1057963239#1" fromLane="0" toLane="0"/>
    <connection from="-1057963239#2" to="1057963237" fromLane="0" toLane="0"/>
    <connection from="-1057963239#2" to="1057963239#2" fromLane="0" toLane="0"/>

    <connection from="-1057963241" to="137971508#1" fromLane="0" toLane="0"/>
    <connection from="-1057963241" to="-137971508#0" fromLane="0" toLane="0"/>
    <connection from="-1057963241" to="1057963241" fromLane="0" toLane="0"/>

    <connection from="-1057963243#0" to="1057963243#0" fromLane="0" toLane="0"/>

    <connection from="-1057963243#1" to="-1057963243#0" fromLane="0" toLane="0"/>
    <connection from="-1057963243#1" to="-1057963244" fromLane="0" toLane="0"/>
    <connection from="-1057963243#1" to="1057963243#1" fromLane="0" toLane="0"/>

    <connection from="-1057963244" to="-203098166#4" fromLane="0" toLane="0"/>
    <connection from="-1057963244" to="203098166#5" fromLane="0" toLane="0"/>
    <connection from="-1057963244" to="1057963244" fromLane="0" toLane="0"/>

    <connection from="-1057963245" to="1057963245" fromLane="0" toLane="0"/>

    <connection from="-1057963246" to="1057963246" fromLane="0" toLane="0"/>

    <connection from="-1057963247" to="203098165#1" fromLane="0" toLane="0"/>
    <connection from="-1057963247" to="-203098165#0" fromLane="0" toLane="0"/>
    <connection from="-1057963247" to="1057963247" fromLane="0" toLane="0"/>

    <connection from="-1057963248" to="1057963248" fromLane="0" toLane="0"/>

    <connection from="-1057963249" to="1057963249" fromLane="0" toLane="0"/>

    <connection from="-1057963250" to="1057963250" fromLane="0" toLane="0"/>

    <connection from="-1057963251" to="1057963251" fromLane="0" toLane="0"/>

    <connection from="-1057963252" to="137971502#5" fromLane="0" toLane="0"/>
    <connection from="-1057963252" to="1057963252" fromLane="0" toLane="0"/>

    <connection from="-1057963253" to="-137971488#2" fromLane="0" toLane="0"/>
    <connection from="-1057963253" to="137971488#3" fromLane="0" toLane="0"/>
    <connection from="-1057963253" to="1057963253" fromLane="0" toLane="0"/>

    <connection from="-1057963255" to="1057963255" fromLane="0" toLane="0"/>

    <connection from="-1057963256" to="1057963275#2" fromLane="0" toLane="0"/>
    <connection from="-1057963256" to="-1057963275#1" fromLane="0" toLane="0"/>
    <connection from="-1057963256" to="1057963256" fromLane="0" toLane="0"/>

    <connection from="-1057963260" to="1057963260" fromLane="0" toLane="0"/>

    <connection from="-1057963261" to="-243344676#4" fromLane="0" toLane="0"/>
    <connection from="-1057963261" to="243344676#5" fromLane="0" toLane="0"/>
    <connection from="-1057963261" to="1057963261" fromLane="0" toLane="0"/>

    <connection from="-1057963262" to="1057963262" fromLane="0" toLane="0"/>

    <connection from="-1057963264" to="1057963264" fromLane="0" toLane="0"/>

    <connection from="-1057963265" to="1057963265" fromLane="0" toLane="0"/>

    <connection from="-1057963266" to="1057963266" fromLane="0" toLane="0"/>

    <connection from="-1057963267" to="-754668832#1" fromLane="0" toLane="0"/>
    <connection from="-1057963267" to="754668832#2" fromLane="0" toLane="0"/>
    <connection from="-1057963267" to="1057963267" fromLane="0" toLane="0"/>

    <connection from="-1057963268" to="754668832#1" fromLane="0" toLane="0"/>
    <connection from="-1057963268" to="-754668832#0" fromLane="0" toLane="0"/>
    <connection from="-1057963268" to="1057963268" fromLane="0" toLane="0"/>

    <connection from="-1057963272#0" to="-427195148#1" fromLane="0" toLane="0"/>
    <connection from="-1057963272#0" to="427195148#2" fromLane="0" toLane="0"/>
    <connection from="-1057963272#0" to="1057963272#0" fromLane="0" toLane="0"/>

    <connection from="-1057963272#1" to="-1057963272#0" fromLane="0" toLane="0"/>
    <connection from="-1057963272#1" to="1057963272#1" fromLane="0" toLane="0"/>

    <connection from="-1057963275#0" to="-1057963275#2" fromLane="0" toLane="0"/>
    <connection from="-1057963275#0" to="-427195093#1" fromLane="0" toLane="0"/>
    <connection from="-1057963275#0" to="427195093#2" fromLane="0" toLane="0"/>

    <connection from="-1057963275#1" to="-1057963275#0" fromLane="0" toLane="0"/>
    <connection from="-1057963275#1" to="1057963275#1" fromLane="0" toLane="0"/>

    <connection from="-1057963275#2" to="-1057963275#1" fromLane="0" toLane="0"/>
    <connection from="-1057963275#2" to="1057963256" fromLane="0" toLane="0"/>
    <connection from="-1057963275#2" to="1057963275#2" fromLane="0" toLane="0"/>

    <connection from="-1057963280" to="319059873#1" fromLane="0" toLane="0"/>
    <connection from="-1057963280" to="-319059873#0" fromLane="0" toLane="0"/>
    <connection from="-1057963280" to="1057963280" fromLane="0" toLane="0"/>

    <connection from="-1057963281" to="-319059873#1" fromLane="0" toLane="0"/>
    <connection from="-1057963281" to="319059873#2" fromLane="0" toLane="0"/>
    <connection from="-1057963281" to="1057963281" fromLane="0" toLane="0"/>

    <connection from="-1078011410" to="1078011412#1" fromLane="0" toLane="0"/>
    <connection from="-1078011410" to="1078011410" fromLane="0" toLane="0"/>

    <connection from="-1078011415" to="1078011426#1" fromLane="0" toLane="0"/>
    <connection from="-1078011415" to="1078011415" fromLane="0" toLane="0"/>

    <connection from="-1078011417" to="459795483#1" fromLane="0" toLane="0"/>
    <connection from="-1078011417" to="-459795483#0" fromLane="0" toLane="0"/>
    <connection from="-1078011417" to="1078011417" fromLane="0" toLane="0"/>

    <connection from="-1078011422" to="-190293165#1" fromLane="0" toLane="0"/>

    <connection from="-1078011430" to="-1078011432#0" fromLane="0" toLane="0"/>
    <connection from="-1078011430" to="1078011432#1" fromLane="0" toLane="0"/>

    <connection from="-1078011432#0" to="137391486#4" fromLane="0" toLane="0"/>
    <connection from="-1078011432#0" to="1078011432#0" fromLane="0" toLane="0"/>

    <connection from="-1078131354#0" to="628091111#5" fromLane="0" toLane="0"/>
    <connection from="-1078131354#0" to="1078131354#0" fromLane="0" toLane="0"/>

    <connection from="-1078131354#1" to="-1078131354#0" fromLane="0" toLane="0"/>
    <connection from="-1078131354#1" to="1078131354#1" fromLane="0" toLane="0"/>

    <connection from="-1078131355#0" to="628091111#2" fromLane="0" toLane="0"/>
    <connection from="-1078131355#0" to="1078131355#0" fromLane="0" toLane="0"/>

    <connection from="-1078131355#1" to="-1078131355#0" fromLane="0" toLane="0"/>
    <connection from="-1078131355#1" to="1078131355#1" fromLane="0" toLane="0"/>

    <connection from="-1078131356#0" to="-1078131358" fromLane="0" toLane="0"/>
    <connection from="-1078131356#0" to="-1078131354#1" fromLane="0" toLane="0"/>
    <connection from="-1078131356#0" to="1078131356#0" fromLane="0" toLane="0"/>

    <connection from="-1078131356#1" to="-1078131357#1" fromLane="0" toLane="0"/>
    <connection from="-1078131356#1" to="-1078131356#0" fromLane="0" toLane="0"/>
    <connection from="-1078131356#1" to="1078131356#1" fromLane="0" toLane="0"/>

    <connection from="-1078131356#2" to="-1078131355#1" fromLane="0" toLane="0"/>
    <connection from="-1078131356#2" to="-1078131356#1" fromLane="0" toLane="0"/>
    <connection from="-1078131356#2" to="1078131356#2" fromLane="0" toLane="0"/>

    <connection from="-1078131356#3" to="-1078131356#2" fromLane="0" toLane="0"/>
    <connection from="-1078131356#3" to="1078131356#3" fromLane="0" toLane="0"/>

    <connection from="-1078131357#0" to="628091111#3" fromLane="0" toLane="0"/>
    <connection from="-1078131357#0" to="1078131357#0" fromLane="0" toLane="0"/>

    <connection from="-1078131357#1" to="-1078131357#0" fromLane="0" toLane="0"/>
    <connection from="-1078131357#1" to="1078131357#1" fromLane="0" toLane="0"/>

    <connection from="-1078131358" to="628091111#4" fromLane="0" toLane="0"/>
    <connection from="-1078131358" to="1078131358" fromLane="0" toLane="0"/>

    <connection from="-1078131359" to="1000641160#1" fromLane="0" toLane="1"/>
    <connection from="-1078131359" to="1078131359" fromLane="0" toLane="0"/>

    <connection from="-1078131360" to="-190293094#3" fromLane="0" toLane="0"/>
    <connection from="-1078131360" to="1078131360" fromLane="0" toLane="0"/>

    <connection from="-1078131366" to="-1078131370#3" fromLane="0" toLane="0"/>
    <connection from="-1078131366" to="1078131370#4" fromLane="0" toLane="0"/>
    <connection from="-1078131366" to="1078131366" fromLane="0" toLane="0"/>

    <connection from="-1078131367" to="-1078131370#4" fromLane="0" toLane="0"/>
    <connection from="-1078131367" to="1078131370#5" fromLane="0" toLane="0"/>
    <connection from="-1078131367" to="1078131367" fromLane="0" toLane="0"/>

    <connection from="-1078131368" to="-1078131370#5" fromLane="0" toLane="0"/>
    <connection from="-1078131368" to="1078131370#6" fromLane="0" toLane="0"/>
    <connection from="-1078131368" to="1078131368" fromLane="0" toLane="0"/>

    <connection from="-1078131370#0" to="1078131371#0" fromLane="0" toLane="0"/>
    <connection from="-1078131370#0" to="1078131370#0" fromLane="0" toLane="0"/>

    <connection from="-1078131370#1" to="-1078131368" fromLane="0" toLane="0"/>
    <connection from="-1078131370#1" to="-1078131370#0" fromLane="0" toLane="0"/>
    <connection from="-1078131370#1" to="1078131370#1" fromLane="0" toLane="0"/>

    <connection from="-1078131370#2" to="-1078131367" fromLane="0" toLane="0"/>
    <connection from="-1078131370#2" to="-1078131370#1" fromLane="0" toLane="0"/>
    <connection from="-1078131370#2" to="1078131370#2" fromLane="0" toLane="0"/>

    <connection from="-1078131370#3" to="-1078131366" fromLane="0" toLane="0"/>
    <connection from="-1078131370#3" to="-1078131370#2" fromLane="0" toLane="0"/>
    <connection from="-1078131370#3" to="1078131370#3" fromLane="0" toLane="0"/>

    <connection from="-1078131370#4" to="1078131366" fromLane="0" toLane="0"/>
    <connection from="-1078131370#4" to="-1078131370#3" fromLane="0" toLane="0"/>
    <connection from="-1078131370#4" to="1078131370#4" fromLane="0" toLane="0"/>

    <connection from="-1078131370#5" to="1078131367" fromLane="0" toLane="0"/>
    <connection from="-1078131370#5" to="-1078131370#4" fromLane="0" toLane="0"/>
    <connection from="-1078131370#5" to="1078131370#5" fromLane="0" toLane="0"/>

    <connection from="-1078131370#6" to="1078131368" fromLane="0" toLane="0"/>
    <connection from="-1078131370#6" to="-1078131370#5" fromLane="0" toLane="0"/>
    <connection from="-1078131370#6" to="1078131370#6" fromLane="0" toLane="0"/>

    <connection from="-1078131375" to="651742707#0" fromLane="0" toLane="0"/>
    <connection from="-1078131375" to="-457009671#1" fromLane="0" toLane="0"/>

    <connection from="-1078269133#0" to="1078269133#0" fromLane="0" toLane="0"/>

    <connection from="-1078269133#1" to="-1078011410" fromLane="0" toLane="0"/>
    <connection from="-1078269133#1" to="-1078269133#0" fromLane="0" toLane="0"/>
    <connection from="-1078269133#1" to="1078269133#1" fromLane="0" toLane="0"/>

    <connection from="-1080087099" to="137390626" fromLane="0" toLane="0"/>
    <connection from="-1080087099" to="1080087100" fromLane="0" toLane="0"/>
    <connection from="-1080087099" to="18932845#0" fromLane="0" toLane="0"/>
    <connection from="-1080087099" to="1080087099" fromLane="0" toLane="0"/>

    <connection from="-1093304242" to="1101778932#1" fromLane="0" toLane="0"/>
    <connection from="-1093304242" to="1093304242" fromLane="0" toLane="0"/>

    <connection from="-1102648499" to="-459251294#1" fromLane="0" toLane="0"/>
    <connection from="-1102648499" to="-459251294#1" fromLane="1" toLane="1"/>
    <connection from="-1102648499" to="1102648499" fromLane="1" toLane="0"/>

    <connection from="-1102648500" to="28884636#1" fromLane="0" toLane="0"/>
    <connection from="-1102648500" to="-28884636#0" fromLane="0" toLane="0"/>
    <connection from="-1102648500" to="1102648500" fromLane="0" toLane="0"/>

    <connection from="-1102923896#0" to="1102923895#1" fromLane="0" toLane="0"/>
    <connection from="-1102923896#0" to="1102923896#0" fromLane="0" toLane="0"/>

    <connection from="-1102923896#1" to="1240729462" fromLane="0" toLane="0"/>
    <connection from="-1102923896#1" to="-1102923896#0" fromLane="0" toLane="0"/>
    <connection from="-1102923896#1" to="1102923896#1" fromLane="0" toLane="0"/>
