<?xml version="1.0" encoding="UTF-8"?>

<!-- generated on 2025-04-04 16:23:34 by Eclipse SUMO netconvert Version 1.19.0
<configuration xmlns:xsi="http://www.w3.org/2001/XMLSchema-instance" xsi:noNamespaceSchemaLocation="http://sumo.dlr.de/xsd/netconvertConfiguration.xsd">

    <input>
        <sumo-net-file value="montereau_fault_yonne/montereau_fault_yonne.net.xml"/>
    </input>

    <output>
        <plain-output-prefix value="montereau_fault_yonne/montereau_fault_yonne"/>
    </output>

    <processing>
        <geometry.min-radius.fix.railways value="false"/>
        <geometry.max-grade.fix value="false"/>
        <offset.disable-normalization value="true"/>
        <lefthand value="0"/>
    </processing>

    <tls_building>
        <tls.ignore-internal-junction-jam value="1"/>
    </tls_building>

    <junctions>
        <no-turnarounds value="true"/>
        <junctions.corner-detail value="5"/>
        <junctions.limit-turn-speed value="5.50"/>
        <rectangular-lane-cut value="0"/>
    </junctions>

    <pedestrian>
        <walkingareas value="0"/>
    </pedestrian>

</configuration>
-->

<edges version="1.16" xmlns:xsi="http://www.w3.org/2001/XMLSchema-instance" xsi:noNamespaceSchemaLocation="http://sumo.dlr.de/xsd/edges_file.xsd">
    <location netOffset="-493974.45,-5356986.57" convBoundary="0.00,0.00,6105.16,5597.29" origBoundary="2.899129,48.366048,3.027264,48.449029" projParameter="+proj=utm +zone=31 +ellps=WGS84 +datum=WGS84 +units=m +no_defs"/>

    <edge id="-1000641162" from="9236449092" to="9236449085" priority="1" type="highway.service" numLanes="1" speed="5.56" shape="1984.02,2447.26 1984.18,2437.51 1983.80,2435.90 1968.71,2414.94 1954.21,2414.75" allow="pedestrian delivery bicycle"/>
    <edge id="-1000641163#0" from="9236449086" to="9236449088" priority="1" type="highway.service" numLanes="1" speed="5.56" allow="pedestrian delivery bicycle"/>
    <edge id="-1000641163#1" from="9236449087" to="9236449086" priority="1" type="highway.service" numLanes="1" speed="5.56" allow="pedestrian delivery bicycle"/>
    <edge id="-1000641164#0" from="9236449091" to="9236449090" priority="1" type="highway.service" numLanes="1" speed="5.56" allow="pedestrian delivery bicycle"/>
    <edge id="-1000641164#1" from="9236449089" to="9236449091" priority="1" type="highway.service" numLanes="1" speed="5.56" allow="pedestrian delivery bicycle"/>
    <edge id="-1000641165#0" from="9236449086" to="9236449092" priority="1" type="highway.service" numLanes="1" speed="5.56" allow="pedestrian delivery bicycle"/>
    <edge id="-1000641165#1" from="9236449091" to="9236449086" priority="1" type="highway.service" numLanes="1" speed="5.56" allow="pedestrian delivery bicycle"/>
    <edge id="-1000641167" from="9236449100" to="9236449101" priority="1" type="highway.service" numLanes="1" speed="5.56" allow="pedestrian delivery bicycle"/>
    <edge id="-1000641168" from="9236449102" to="9236449103" priority="1" type="highway.service" numLanes="1" speed="5.56" allow="pedestrian delivery bicycle"/>
    <edge id="-1000641170" from="9236449110" to="9236449111" priority="1" type="highway.service" numLanes="1" speed="5.56" allow="pedestrian delivery bicycle"/>
    <edge id="-1000641171" from="9236449112" to="9236449115" priority="1" type="highway.service" numLanes="1" speed="5.56" shape="2252.76,2031.11 2247.78,2067.96 2239.54,2077.37 2231.64,2134.69" allow="pedestrian delivery bicycle"/>
    <edge id="-1000641172#0" from="9236485429" to="9236485424" priority="1" type="highway.service" numLanes="1" speed="5.56" shape="2297.28,2294.33 2311.97,2295.01 2316.64,2296.50 2319.72,2300.35 2318.44,2329.75" allow="pedestrian delivery bicycle"/>
    <edge id="-1000641172#1" from="9236485424" to="9236485429" priority="1" type="highway.service" numLanes="1" speed="5.56" shape="2318.44,2329.75 2248.45,2326.43 2248.63,2318.22 2262.13,2299.80 2265.31,2296.53 2269.67,2294.35 2297.28,2294.33" allow="pedestrian delivery bicycle"/>
    <edge id="-1000641173" from="9236485425" to="9236485427" priority="1" type="highway.service" numLanes="1" speed="5.56" shape="2180.37,2346.09 2223.89,2288.25 2227.26,2277.74" allow="pedestrian delivery bicycle"/>
    <edge id="-1000641174#0" from="9236485427" to="9236485428" priority="1" type="highway.service" numLanes="1" speed="5.56" allow="pedestrian delivery bicycle"/>
    <edge id="-1000641174#1" from="195698282" to="9236485427" priority="1" type="highway.service" numLanes="1" speed="5.56" shape="2206.37,2261.39 2208.81,2263.25 2211.17,2265.03 2227.26,2277.74" allow="pedestrian delivery bicycle"/>
    <edge id="-1000641175#0" from="9236485428" to="cluster_9236485430_9236485433" priority="1" type="highway.service" numLanes="1" speed="5.56" shape="2296.20,2273.07 2294.45,2238.65" allow="pedestrian delivery bicycle"/>
    <edge id="-1000641175#1" from="9236485429" to="9236485428" priority="1" type="highway.service" numLanes="1" speed="5.56" allow="pedestrian delivery bicycle"/>
    <edge id="-1000641176" from="9236485431" to="cluster_9236485430_9236485433" priority="1" type="highway.service" numLanes="1" speed="5.56" shape="2364.48,2278.15 2303.32,2279.97 2300.59,2238.39" allow="pedestrian delivery bicycle"/>
    <edge id="-1000641177#0" from="9236485440" to="9236485435" priority="1" type="highway.service" numLanes="1" speed="5.56" allow="pedestrian delivery bicycle"/>
    <edge id="-1000641177#1" from="9236485434" to="9236485440" priority="1" type="highway.service" numLanes="1" speed="5.56" allow="pedestrian delivery bicycle"/>
    <edge id="-1000641178#0" from="9236485438" to="9236485447" priority="1" type="highway.service" numLanes="1" speed="5.56" allow="pedestrian delivery bicycle"/>
    <edge id="-1000641178#1" from="9236485436" to="9236485438" priority="1" type="highway.service" numLanes="1" speed="5.56" shape="2346.02,2129.56 2343.34,2133.63 2343.64,2136.49" allow="pedestrian delivery bicycle"/>
    <edge id="-1000641179#0" from="9236485447" to="9236485450" priority="1" type="highway.service" numLanes="1" speed="5.56" shape="2345.46,2179.66 2345.67,2206.39 2327.22,2231.64 2327.21,2237.26" allow="pedestrian delivery bicycle"/>
    <edge id="-1000641179#1" from="9236485438" to="9236485447" priority="1" type="highway.service" numLanes="1" speed="5.56" shape="2343.64,2136.49 2355.16,2136.29 2358.43,2136.69 2362.61,2140.74 2364.02,2168.26 2360.54,2175.59 2357.57,2178.76 2345.46,2179.66" allow="pedestrian delivery bicycle"/>
    <edge id="-1000641179#2" from="9236485440" to="9236485438" priority="1" type="highway.service" numLanes="1" speed="5.56" allow="pedestrian delivery bicycle"/>
    <edge id="-1000641179#3" from="9236485439" to="9236485440" priority="1" type="highway.service" numLanes="1" speed="5.56" allow="pedestrian delivery bicycle"/>
    <edge id="-1000641180" from="9236485451" to="2129346246" priority="1" type="highway.service" numLanes="1" speed="5.56" allow="pedestrian delivery bicycle"/>
    <edge id="-1000641181" from="9236485452" to="2129346260" priority="1" type="highway.service" numLanes="1" speed="5.56" shape="2874.36,1234.22 2852.11,1226.21 2849.03,1222.76 2847.93,1218.79 2856.86,1191.62" allow="pedestrian delivery bicycle"/>
    <edge id="-1000641183#0" from="9236462603" to="9236462602" priority="1" type="highway.service" numLanes="1" speed="5.56" allow="pedestrian delivery bicycle"/>
    <edge id="-1000641183#1" from="9236485463" to="9236462603" priority="1" type="highway.service" numLanes="1" speed="5.56" shape="2808.23,1280.48 2812.12,1281.79 2817.28,1284.65 2819.18,1290.60 2819.19,1313.07 2821.18,1318.02 2824.55,1322.37 2828.93,1325.24 2843.38,1325.39" allow="pedestrian delivery bicycle"/>
    <edge id="-1000641184" from="9236462603" to="195698188" priority="1" type="highway.service" numLanes="1" speed="5.56" allow="pedestrian delivery bicycle"/>
    <edge id="-1000641199" from="9236485567" to="cluster_10286519808_2008335926_9236485570" priority="1" type="highway.service" numLanes="1" speed="5.56" shape="1377.32,926.22 1366.19,915.04 1359.53,913.36 1326.64,921.79" allow="pedestrian delivery bicycle"/>
    <edge id="-1000641200#0" from="10286519807" to="9236485572" priority="1" type="highway.service" numLanes="1" speed="5.56" allow="pedestrian delivery bicycle"/>
    <edge id="-1000641200#1" from="9236485571" to="10286519807" priority="1" type="highway.service" numLanes="1" speed="5.56" allow="pedestrian delivery bicycle"/>
    <edge id="-1000641201" from="9236485573" to="9236485574" priority="1" type="highway.service" numLanes="1" speed="5.56" allow="pedestrian delivery bicycle"/>
    <edge id="-1000641202#0" from="10286519802" to="9236485577" priority="1" type="highway.service" numLanes="1" speed="5.56" allow="pedestrian delivery bicycle"/>
    <edge id="-1000641202#1" from="9236485575" to="10286519802" priority="1" type="highway.service" numLanes="1" speed="5.56" allow="pedestrian delivery bicycle"/>
    <edge id="-1000641202#2" from="9236485576" to="9236485575" priority="1" type="highway.service" numLanes="1" speed="5.56" allow="pedestrian delivery bicycle"/>
    <edge id="-1000641203" from="9236485578" to="9236485579" priority="1" type="highway.service" numLanes="1" speed="5.56" allow="pedestrian delivery bicycle"/>
    <edge id="-1000643418" from="9236437774" to="195481592" priority="1" type="highway.service" numLanes="1" speed="5.56" shape="1632.53,1279.11 1627.49,1306.94 1575.34,1294.99 1569.48,1295.40 1565.72,1298.67 1549.22,1381.83" allow="pedestrian delivery bicycle"/>
    <edge id="-1000643420" from="cluster_12331496839_124168255_1738029688_8016223992_#1more" to="9236437785" priority="1" type="highway.service" numLanes="1" speed="5.56" shape="1952.67,1071.35 1947.50,1094.61" allow="pedestrian delivery bicycle"/>
    <edge id="-1000643422" from="9236437793" to="9236437794" priority="1" type="highway.service" numLanes="1" speed="5.56" allow="pedestrian delivery bicycle"/>
    <edge id="-1000643423#0" from="9236437794" to="9236437798" priority="1" type="highway.service" numLanes="1" speed="5.56" shape="1973.53,1148.69 1969.08,1131.23 1946.42,1119.14" allow="pedestrian delivery bicycle"/>
    <edge id="-1000643423#1" from="9236437795" to="9236437794" priority="1" type="highway.service" numLanes="1" speed="5.56" shape="1960.77,1168.40 1975.26,1155.49 1973.53,1148.69" allow="pedestrian delivery bicycle"/>
    <edge id="-1000643425" from="195481605" to="9236437805" priority="1" type="highway.service" numLanes="1" speed="5.56" shape="1936.16,1353.08 1942.53,1360.57 1958.63,1365.11 1962.30,1368.67 1961.11,1372.03 1956.74,1372.04 1940.35,1369.77 1915.63,1369.69" allow="pedestrian delivery bicycle"/>
    <edge id="-1000643426" from="9236437806" to="9236437810" priority="1" type="highway.service" numLanes="1" speed="5.56" allow="pedestrian delivery bicycle"/>
    <edge id="-1000643427" from="9236437807" to="9236437808" priority="1" type="highway.service" numLanes="1" speed="5.56" allow="pedestrian delivery bicycle"/>
    <edge id="-1000643428#0" from="9236437815" to="9236437816" priority="1" type="highway.service" numLanes="1" speed="5.56" shape="2038.83,1310.20 2049.24,1291.58 2039.19,1273.16 2021.32,1278.13 2012.09,1283.88" allow="pedestrian delivery bicycle"/>
    <edge id="-1000643428#1" from="9236437810" to="9236437815" priority="1" type="highway.service" numLanes="1" speed="5.56" allow="pedestrian delivery bicycle"/>
    <edge id="-1000643428#2" from="9236437808" to="9236437810" priority="1" type="highway.service" numLanes="1" speed="5.56" shape="2067.93,1327.98 2058.49,1321.37 2052.64,1319.11" allow="pedestrian delivery bicycle"/>
    <edge id="-1000643428#3" from="9236437809" to="9236437808" priority="1" type="highway.service" numLanes="1" speed="5.56" allow="pedestrian delivery bicycle"/>
    <edge id="-1000643429#0" from="9236437816" to="9236502518" priority="1" type="highway.service" numLanes="1" speed="5.56" shape="2012.09,1283.88 2002.76,1279.24 1991.47,1279.51" allow="pedestrian delivery bicycle"/>
    <edge id="-1000643429#1" from="9236437815" to="9236437816" priority="1" type="highway.service" numLanes="1" speed="5.56" allow="pedestrian delivery bicycle"/>
    <edge id="-1000643429#2" from="9236437814" to="9236437815" priority="1" type="highway.service" numLanes="1" speed="5.56" allow="pedestrian delivery bicycle"/>
    <edge id="-1030420532#1" from="cluster_3050120147_567531901" to="cluster_124168382_2129346187" priority="10" type="highway.tertiary" numLanes="1" speed="22.22" shape="2806.05,1213.42 2757.80,1206.67" disallow="tram rail_urban rail rail_electric rail_fast ship"/>
    <edge id="-1052730668" from="9674780663" to="9674780656" priority="1" type="highway.service" numLanes="1" speed="5.56" shape="3778.45,3867.16 3804.32,3870.31 3806.16,3869.50 3807.48,3867.95 3808.07,3860.67 3807.04,3858.54 3804.68,3857.22 3803.36,3857.11 3785.38,3855.59 3783.55,3855.43" allow="pedestrian delivery bicycle"/>
    <edge id="-1054797778" from="2627102516" to="4975507441" priority="20" type="railway.rail" numLanes="1" speed="33.33" shape="1874.87,1468.06 1813.82,1485.35 1783.17,1493.40 1694.54,1516.89 1654.00,1526.93 1626.17,1533.43 1597.48,1539.34 1576.30,1543.04 1551.26,1547.00 1528.39,1549.96 1505.44,1552.73 1485.24,1554.44 1470.78,1555.33 1449.65,1556.24 1424.65,1556.70 1397.71,1556.42 1362.74,1555.59 1303.40,1552.50 1241.92,1548.18" spreadType="center" allow="rail rail_electric rail_fast">
        <param key="railway:track_ref" value="2H"/>
    </edge>
    <edge id="-1055363757" from="9697502174" to="9697502173" priority="1" type="highway.service" numLanes="1" speed="5.56" shape="2843.62,3365.95 2845.04,3397.40 2845.31,3403.29" allow="pedestrian delivery bicycle"/>
    <edge id="-1055363758" from="9697502176" to="9697502175" priority="1" type="highway.service" numLanes="1" speed="5.56" shape="2892.16,3359.07 2894.51,3395.32 2894.82,3400.03" allow="pedestrian delivery bicycle"/>
    <edge id="-1055363760" from="1512826323" to="9697502182" priority="1" type="highway.service" numLanes="1" speed="5.56" shape="2841.86,3290.52 2840.88,3295.33 2842.91,3304.67 2897.05,3301.06 2902.06,3300.59" allow="pedestrian delivery bicycle"/>
    <edge id="-1057732879" from="9719037123" to="9719037124" priority="4" type="highway.unclassified" numLanes="1" speed="13.89" disallow="tram rail_urban rail rail_electric rail_fast ship"/>
    <edge id="-1057963229" from="9721205931" to="9721205932" priority="1" type="highway.service" numLanes="1" speed="5.56" allow="pedestrian delivery bicycle"/>
    <edge id="-1057963230" from="9721205933" to="9721205934" priority="1" type="highway.service" numLanes="1" speed="5.56" allow="pedestrian delivery bicycle"/>
    <edge id="-1057963232" from="9721205939" to="9721205940" priority="1" type="highway.service" numLanes="1" speed="5.56" shape="2666.37,3172.28 2666.66,3179.06 2667.89,3193.40" allow="pedestrian delivery bicycle"/>
    <edge id="-1057963233#0" from="9721205940" to="9721205942" priority="1" type="highway.service" numLanes="1" speed="5.56" allow="pedestrian delivery bicycle"/>
    <edge id="-1057963233#1" from="9721205941" to="9721205940" priority="1" type="highway.service" numLanes="1" speed="5.56" allow="pedestrian delivery bicycle"/>
    <edge id="-1057963234" from="9721205947" to="9721205949" priority="1" type="highway.service" numLanes="1" speed="5.56" shape="3028.22,3358.99 3006.67,3360.29 3008.79,3392.53" allow="pedestrian delivery bicycle"/>
    <edge id="-1057963235#0" from="9721205952" to="9721205951" priority="1" type="highway.service" numLanes="1" speed="5.56" allow="pedestrian delivery bicycle"/>
    <edge id="-1057963235#1" from="9721205950" to="9721205952" priority="1" type="highway.service" numLanes="1" speed="5.56" allow="pedestrian delivery bicycle"/>
    <edge id="-1057963236" from="9721205952" to="9721205953" priority="1" type="highway.service" numLanes="1" speed="5.56" allow="pedestrian delivery bicycle"/>
    <edge id="-1057963237" from="9721205954" to="9721205956" priority="1" type="highway.service" numLanes="1" speed="5.56" shape="2975.40,3340.71 2973.94,3319.51 2973.99,3318.05 2979.07,3314.24" allow="pedestrian delivery bicycle"/>
    <edge id="-1057963238" from="9721205957" to="9721205958" priority="1" type="highway.service" numLanes="1" speed="5.56" shape="2992.27,3339.52 2991.35,3326.17 2991.10,3322.61" allow="pedestrian delivery bicycle"/>
    <edge id="-1057963239#0" from="9721205958" to="9721205964" priority="1" type="highway.service" numLanes="1" speed="5.56" shape="2991.10,3322.61 2994.94,3322.99 3002.19,3320.11 3021.28,3299.47" allow="pedestrian delivery bicycle"/>
    <edge id="-1057963239#1" from="9721205956" to="9721205958" priority="1" type="highway.service" numLanes="1" speed="5.56" shape="2979.07,3314.24 2982.93,3319.93 2987.90,3322.30 2991.10,3322.61" allow="pedestrian delivery bicycle"/>
    <edge id="-1057963239#2" from="9721205959" to="9721205956" priority="1" type="highway.service" numLanes="1" speed="5.56" allow="pedestrian delivery bicycle"/>
    <edge id="-1057963241" from="1512826209" to="cluster_1512826361_2008944925" priority="3" type="highway.residential" numLanes="1" speed="13.89" shape="2215.90,3428.59 2216.03,3436.96 2216.36,3446.43 2213.63,3472.57 2210.35,3508.14 2208.04,3514.76" disallow="tram rail_urban rail rail_electric rail_fast ship"/>
    <edge id="-1057963243#0" from="9721205979" to="9721205978" priority="1" type="highway.service" numLanes="1" speed="5.56" allow="pedestrian delivery bicycle"/>
    <edge id="-1057963243#1" from="9721205977" to="9721205979" priority="1" type="highway.service" numLanes="1" speed="5.56" allow="pedestrian delivery bicycle"/>
    <edge id="-1057963244" from="9721205979" to="9721205980" priority="1" type="highway.service" numLanes="1" speed="5.56" allow="pedestrian delivery bicycle"/>
    <edge id="-1057963245" from="9721205981" to="9721205982" priority="1" type="highway.service" numLanes="1" speed="5.56" allow="pedestrian delivery bicycle"/>
    <edge id="-1057963246" from="9721205983" to="9721205984" priority="1" type="highway.service" numLanes="1" speed="5.56" allow="pedestrian delivery bicycle"/>
    <edge id="-1057963247" from="9721205985" to="9721176866" priority="1" type="highway.service" numLanes="1" speed="5.56" allow="pedestrian delivery bicycle"/>
    <edge id="-1057963248" from="9721176867" to="9721176868" priority="1" type="highway.service" numLanes="1" speed="5.56" allow="pedestrian delivery bicycle"/>
    <edge id="-1057963249" from="9721176869" to="9721176870" priority="1" type="highway.service" numLanes="1" speed="5.56" allow="pedestrian delivery bicycle"/>
    <edge id="-1057963250" from="9721176871" to="9721176872" priority="1" type="highway.service" numLanes="1" speed="5.56" allow="pedestrian delivery bicycle"/>
    <edge id="-1057963251" from="9721176873" to="9721176874" priority="1" type="highway.service" numLanes="1" speed="5.56" allow="pedestrian delivery bicycle"/>
    <edge id="-1057963252" from="9721176875" to="9721176876" priority="1" type="highway.service" numLanes="1" speed="5.56" allow="pedestrian delivery bicycle"/>
    <edge id="-1057963253" from="9721176877" to="9721176878" priority="1" type="highway.service" numLanes="1" speed="5.56" allow="pedestrian delivery bicycle"/>
    <edge id="-1057963255" from="cluster_2130656805_9721176880" to="9721176884" priority="1" type="highway.service" numLanes="1" speed="5.56" shape="2537.34,3738.47 2585.99,3737.13 2597.71,3741.18 2636.72,3738.78 2635.61,3711.66" allow="pedestrian delivery bicycle"/>
    <edge id="-1057963256" from="9721176885" to="cluster_9721176886_9721206131" priority="1" type="highway.service" numLanes="1" speed="5.56" shape="2960.59,3505.02 2961.93,3523.29" allow="pedestrian delivery bicycle"/>
    <edge id="-1057963260" from="9721176894" to="9721176895" priority="1" type="highway.service" numLanes="1" speed="5.56" allow="pedestrian delivery bicycle"/>
    <edge id="-1057963261" from="9721176896" to="9721176901" priority="1" type="highway.service" numLanes="1" speed="5.56" shape="3070.43,3588.50 3081.35,3597.89 3085.32,3604.22 3086.13,3611.65 3068.07,3632.54 3083.50,3646.42" allow="pedestrian delivery bicycle"/>
    <edge id="-1057963262" from="7050191390" to="9721176902" priority="1" type="highway.service" numLanes="1" speed="5.56" allow="pedestrian delivery bicycle"/>
    <edge id="-1057963264" from="cluster_10286033838_1512826318_4264371194_9721176908_#1more" to="9721176910" priority="1" type="highway.service" numLanes="1" speed="5.56" shape="2917.68,3721.51 2911.67,3716.26 2878.91,3718.46" allow="pedestrian delivery bicycle"/>
    <edge id="-1057963265" from="cluster_10286033838_1512826318_4264371194_9721176908_#1more" to="9721176911" priority="1" type="highway.service" numLanes="1" speed="5.56" shape="2929.57,3708.38 2972.54,3746.42" allow="pedestrian delivery bicycle"/>
    <edge id="-1057963266" from="cluster_10286033838_1512826318_4264371194_9721176908_#1more" to="9721176914" priority="1" type="highway.service" numLanes="1" speed="5.56" shape="2929.57,3708.38 2904.41,3686.07 2888.13,3686.58" allow="pedestrian delivery bicycle"/>
    <edge id="-1057963267" from="7050191372" to="cluster_7050191371_7050191380" priority="1" type="highway.service" numLanes="1" speed="5.56" shape="3005.50,3660.70 3003.95,3658.90 2987.58,3644.10" allow="pedestrian delivery bicycle"/>
    <edge id="-1057963268" from="7050191389" to="cluster_7050191371_7050191380" priority="1" type="highway.service" numLanes="1" speed="5.56" shape="2960.07,3624.25 2987.05,3644.71" allow="pedestrian delivery bicycle"/>
    <edge id="-1057963272#0" from="9721206125" to="9721206126" priority="1" type="highway.service" numLanes="1" speed="5.56" shape="2908.71,3591.57 2878.45,3594.34 2873.02,3594.75" allow="pedestrian delivery bicycle"/>
    <edge id="-1057963272#1" from="9721206127" to="9721206125" priority="1" type="highway.service" numLanes="1" speed="5.56" allow="pedestrian delivery bicycle"/>
    <edge id="-1057963275#0" from="9721206130" to="cluster_9721176886_9721206131" priority="1" type="highway.service" numLanes="1" speed="5.56" shape="2957.63,3538.27 2972.08,3537.33 2971.13,3522.70" allow="pedestrian delivery bicycle"/>
    <edge id="-1057963275#1" from="cluster_9721176886_9721206131" to="9721206130" priority="1" type="highway.service" numLanes="1" speed="5.56" shape="2961.93,3523.29 2935.11,3525.04 2936.07,3539.67 2957.63,3538.27" allow="pedestrian delivery bicycle"/>
    <edge id="-1057963280" from="9721206138" to="3254781571" priority="1" type="highway.service" numLanes="1" speed="5.56" shape="4382.62,3817.88 4384.51,3822.73 4384.51,3831.53 4380.04,3840.35 4378.26,3847.67 4383.94,3855.15" allow="pedestrian delivery bicycle"/>
    <edge id="-1057963281" from="9721206143" to="9721206145" priority="1" type="highway.service" numLanes="1" speed="5.56" shape="4424.73,3898.03 4408.25,3896.25 4398.58,3849.03" allow="pedestrian delivery bicycle"/>
    <edge id="-1078011410" from="9883516297" to="9883516298" priority="1" type="highway.service" numLanes="1" speed="5.56" allow="pedestrian delivery bicycle"/>
    <edge id="-1078011415" from="9883575338" to="2008944958" priority="1" type="highway.cycleway" numLanes="1" speed="5.56" shape="1703.88,1627.42 1708.56,1645.72 1709.25,1646.76 1710.87,1648.09 1716.43,1649.84" width="2.00" allow="bicycle"/>
    <edge id="-1078011417" from="9883575344" to="cluster_1507295311_2008944927_2008945097_8016259115_#1more" priority="1" type="highway.service" numLanes="1" speed="5.56" shape="1726.76,1652.60 1726.62,1665.09 1726.57,1668.33" allow="pedestrian delivery bicycle"/>
    <edge id="-1078011422" from="131850567" to="2008945095" priority="11" type="highway.secondary" numLanes="1" speed="27.78" shape="2054.20,1507.36 2041.29,1511.12 2036.78,1512.33 1917.85,1544.30" disallow="tram rail_urban rail rail_electric rail_fast ship">
        <param key="ref" value="D 28"/>
    </edge>
    <edge id="-1078011430" from="9883575396" to="cluster_9883575389_9883575399" priority="1" type="highway.service" numLanes="1" speed="5.56" shape="1834.81,1596.69 1834.78,1588.44 1832.44,1578.80 1831.60,1575.76" allow="pedestrian delivery bicycle"/>
    <edge id="-1078131354#0" from="9884495387" to="cluster_5929480702_9884495355" priority="1" type="highway.service" numLanes="1" speed="5.56" shape="1728.49,1710.97 1711.70,1697.56 1664.03,1686.22 1655.79,1687.41 1651.92,1692.36 1641.74,1691.28" allow="pedestrian delivery bicycle"/>
    <edge id="-1078131354#1" from="9236449070" to="9884495387" priority="1" type="highway.service" numLanes="1" speed="5.56" allow="pedestrian delivery bicycle"/>
    <edge id="-1078131355#0" from="9884495361" to="9884495362" priority="1" type="highway.service" numLanes="1" speed="5.56" allow="pedestrian delivery bicycle"/>
    <edge id="-1078131355#1" from="9884495359" to="9884495361" priority="1" type="highway.service" numLanes="1" speed="5.56" shape="1760.36,1764.18 1753.86,1764.56 1725.57,1757.93" allow="pedestrian delivery bicycle"/>
    <edge id="-1078131356#0" from="9884495370" to="9236449070" priority="1" type="highway.service" numLanes="1" speed="5.56" shape="1751.86,1745.85 1746.59,1736.84 1734.66,1720.42" allow="pedestrian delivery bicycle"/>
    <edge id="-1078131356#1" from="9884495359" to="9884495370" priority="1" type="highway.service" numLanes="1" speed="5.56" shape="1760.36,1764.18 1758.02,1757.23 1751.86,1745.85" allow="pedestrian delivery bicycle"/>
    <edge id="-1078131356#2" from="9884495380" to="9884495359" priority="1" type="highway.service" numLanes="1" speed="5.56" shape="1721.09,1776.87 1754.17,1784.95 1759.33,1784.85 1762.31,1783.47 1764.20,1779.90 1763.10,1772.28 1760.36,1764.18" allow="pedestrian delivery bicycle"/>
    <edge id="-1078131356#3" from="9884495363" to="9884495380" priority="1" type="highway.service" numLanes="1" speed="5.56" allow="pedestrian delivery bicycle"/>
    <edge id="-1078131357#0" from="9884495375" to="9884495376" priority="1" type="highway.service" numLanes="1" speed="5.56" allow="pedestrian delivery bicycle"/>
    <edge id="-1078131357#1" from="9884495370" to="9884495375" priority="1" type="highway.service" numLanes="1" speed="5.56" shape="1751.86,1745.85 1744.11,1745.76 1729.20,1742.62" allow="pedestrian delivery bicycle"/>
    <edge id="-1078131358" from="9236449070" to="cluster_5929480702_9884495355" priority="1" type="highway.service" numLanes="1" speed="5.56" shape="1734.66,1720.42 1728.41,1722.89 1641.05,1699.41" allow="pedestrian delivery bicycle"/>
    <edge id="-1078131359" from="cluster_1507295311_2008944927_2008945097_8016259115_#1more" to="9236449077" priority="1" type="highway.service" numLanes="1" speed="5.56" shape="1714.70,1667.68 1714.17,1675.39 1729.08,1687.56 1734.13,1688.64" allow="pedestrian delivery bicycle"/>
    <edge id="-1078131366" from="9884495414" to="9884495402" priority="1" type="highway.service" numLanes="1" speed="5.56" shape="1598.62,1734.68 1597.09,1734.43 1469.82,1717.06 1467.16,1716.90" allow="pedestrian delivery bicycle"/>
    <edge id="-1078131367" from="9884495403" to="9884495404" priority="1" type="highway.service" numLanes="1" speed="5.56" shape="1600.72,1716.96 1599.36,1716.81 1474.22,1700.13 1471.88,1699.79" allow="pedestrian delivery bicycle"/>
    <edge id="-1078131368" from="9884495405" to="9884495406" priority="1" type="highway.service" numLanes="1" speed="5.56" shape="1602.98,1699.03 1601.82,1698.84 1478.98,1682.35 1476.76,1682.09" allow="pedestrian delivery bicycle"/>
    <edge id="-1078131370#0" from="9884495405" to="9884495396" priority="1" type="highway.service" numLanes="1" speed="5.56" allow="pedestrian delivery bicycle"/>
    <edge id="-1078131370#1" from="9884495403" to="9884495405" priority="1" type="highway.service" numLanes="1" speed="5.56" allow="pedestrian delivery bicycle"/>
    <edge id="-1078131370#2" from="9884495414" to="9884495403" priority="1" type="highway.service" numLanes="1" speed="5.56" allow="pedestrian delivery bicycle"/>
    <edge id="-1078131370#3" from="9884495402" to="9884495414" priority="1" type="highway.service" numLanes="1" speed="5.56" shape="1467.16,1716.90 1462.88,1732.42 1463.58,1735.08 1554.95,1746.79 1562.20,1747.19 1589.20,1744.99 1593.17,1743.50 1596.35,1741.11 1597.98,1738.65 1598.62,1734.68" allow="pedestrian delivery bicycle"/>
    <edge id="-1078131370#4" from="9884495404" to="9884495402" priority="1" type="highway.service" numLanes="1" speed="5.56" allow="pedestrian delivery bicycle"/>
    <edge id="-1078131370#5" from="9884495406" to="9884495404" priority="1" type="highway.service" numLanes="1" speed="5.56" allow="pedestrian delivery bicycle"/>
    <edge id="-1078131370#6" from="9884495415" to="9884495406" priority="1" type="highway.service" numLanes="1" speed="5.56" allow="pedestrian delivery bicycle"/>
    <edge id="-1078269133#0" from="9883516297" to="9885565231" priority="1" type="highway.service" numLanes="1" speed="5.56" allow="pedestrian delivery bicycle"/>
    <edge id="-1078269133#1" from="9885565230" to="9883516297" priority="1" type="highway.service" numLanes="1" speed="5.56" allow="pedestrian delivery bicycle"/>
    <edge id="-1080087099" from="3050087374" to="131850566" priority="10" type="highway.tertiary" numLanes="1" speed="13.89" disallow="tram rail_urban rail rail_electric rail_fast ship">
        <param key="ref" value="D 206a"/>
    </edge>
    <edge id="-1093304242" from="10012796366" to="10012796364" priority="1" type="highway.service" numLanes="1" speed="5.56" allow="pedestrian delivery bicycle"/>
    <edge id="-1102648499" from="195488892" to="cluster_195698270_3995098876_3995098879" priority="12" type="highway.primary" numLanes="2" speed="13.89" shape="2892.20,1721.64 2914.76,1785.91 2929.63,1824.14" disallow="tram rail_urban rail rail_electric rail_fast ship">
        <param key="ref" value="D 605"/>
    </edge>