<?xml version="1.0" encoding="UTF-8"?>

<!-- generated on 2025-04-08 23:56:44 by Eclipse SUMO netconvert Version 1.19.0
<configuration xmlns:xsi="http://www.w3.org/2001/XMLSchema-instance" xsi:noNamespaceSchemaLocation="http://sumo.dlr.de/xsd/netconvertConfiguration.xsd">

    <input>
        <sumo-net-file value="montereau_fault_yonne/montereau_fault_yonne.net.xml"/>
    </input>

    <output>
        <plain-output-prefix value="montereau_fault_yonne/montereau_fault_yonne"/>
    </output>

    <processing>
        <geometry.min-radius.fix.railways value="false"/>
        <geometry.max-grade.fix value="false"/>
        <offset.disable-normalization value="true"/>
        <lefthand value="0"/>
    </processing>

    <tls_building>
        <tls.ignore-internal-junction-jam value="1"/>
    </tls_building>

    <junctions>
        <no-turnarounds value="true"/>
        <junctions.corner-detail value="5"/>
        <junctions.limit-turn-speed value="5.50"/>
        <rectangular-lane-cut value="0"/>
    </junctions>

    <pedestrian>
        <walkingareas value="0"/>
    </pedestrian>

</configuration>
-->

<nodes version="1.16" xmlns:xsi="http://www.w3.org/2001/XMLSchema-instance" xsi:noNamespaceSchemaLocation="http://sumo.dlr.de/xsd/nodes_file.xsd">
    <location netOffset="-493974.45,-5356986.57" convBoundary="0.00,0.00,6105.16,5597.29" origBoundary="2.899129,48.366048,3.027264,48.449029" projParameter="+proj=utm +zone=31 +ellps=WGS84 +datum=WGS84 +units=m +no_defs"/>

    <node id="10012796364" x="3824.91" y="4203.73" type="priority"/>
    <node id="10012796366" x="3851.67" y="4197.03" type="priority"/>
    <node id="10082337191" x="2419.01" y="5119.99" type="priority"/>
    <node id="10082744662" x="5069.66" y="2297.87" type="priority"/>
    <node id="10082744680" x="4488.58" y="3255.97" type="dead_end" fringe="inner">
        <param key="buffer_stop" value="true"/>
    </node>
    <node id="10090011774" x="3063.86" y="1542.17" type="priority"/>
    <node id="10092530249" x="4042.83" y="3379.32" type="right_before_left"/>
    <node id="10092530251" x="4034.16" y="3390.73" type="priority"/>
    <node id="10127767597" x="1726.83" y="1592.74" type="dead_end"/>
    <node id="10127767603" x="1887.61" y="1553.30" type="dead_end"/>
    <node id="10127767605" x="1767.84" y="1560.55" type="dead_end"/>
    <node id="10209388643" x="1774.31" y="1558.84" type="dead_end"/>
    <node id="10209388644" x="1714.42" y="1610.45" type="dead_end"/>
    <node id="10275185483" x="1507.25" y="894.15" type="right_before_left"/>
    <node id="10275185484" x="1526.63" y="923.89" type="right_before_left"/>
    <node id="10275185485" x="1513.66" y="911.95" type="right_before_left"/>
    <node id="10275185486" x="1518.52" y="896.99" type="right_before_left"/>
    <node id="10275185487" x="1533.10" y="883.73" type="right_before_left"/>
    <node id="10275185488" x="1516.67" y="875.28" type="right_before_left"/>
    <node id="10275185493" x="1491.73" y="925.23" type="right_before_left"/>
    <node id="10275185494" x="1483.85" y="922.10" type="priority"/>
    <node id="10275185497" x="1398.68" y="717.96" type="right_before_left"/>
    <node id="10275185498" x="1553.19" y="834.97" type="right_before_left"/>
    <node id="10275185499" x="1555.52" y="841.42" type="priority"/>
    <node id="10275185507" x="1315.22" y="639.12" type="priority"/>
    <node id="10275185508" x="1545.96" y="814.98" type="right_before_left"/>
    <node id="10275185611" x="1476.53" y="917.23" type="right_before_left"/>
    <node id="10275185620" x="1459.24" y="988.55" type="priority"/>
    <node id="10275185621" x="1512.32" y="843.53" type="right_before_left"/>
    <node id="10275185622" x="1513.78" y="928.78" type="priority"/>
    <node id="10275185628" x="1364.92" y="979.64" type="right_before_left"/>
    <node id="10275185629" x="1344.46" y="993.49" type="priority"/>
    <node id="10275185649" x="1452.70" y="987.51" type="priority"/>
    <node id="10285925242" x="4350.10" y="3618.43" type="priority"/>
    <node id="10285925245" x="4382.40" y="3705.74" type="priority"/>
    <node id="10285933764" x="2449.98" y="3483.00" type="priority"/>
    <node id="10285933772" x="2147.36" y="2895.31" type="priority"/>
    <node id="10285933776" x="2182.93" y="2846.70" type="priority"/>
    <node id="10285933781" x="2579.43" y="2647.55" type="priority" fringe="inner">
        <param key="buffer_stop" value="true"/>
    </node>
    <node id="10285933785" x="2021.02" y="2810.16" type="priority"/>
    <node id="10285933790" x="2090.42" y="2795.55" type="priority"/>
    <node id="10285933793" x="2030.52" y="2908.85" type="priority"/>
    <node id="10286033761" x="2321.64" y="3636.89" type="priority"/>
    <node id="10286033763" x="2323.78" y="3610.06" type="priority"/>
    <node id="10286033772" x="2456.46" y="3552.45" type="priority"/>
    <node id="10286033779" x="2693.25" y="3664.72" type="dead_end"/>
    <node id="10286033780" x="2548.13" y="3671.64" type="dead_end"/>
    <node id="10286033788" x="2899.72" y="3343.01" type="dead_end"/>
    <node id="10286033789" x="2842.87" y="3353.19" type="dead_end"/>
    <node id="10286033790" x="2866.40" y="3316.07" type="dead_end"/>
    <node id="10286033791" x="2820.07" y="3342.40" type="dead_end"/>
    <node id="10286033809" x="2812.87" y="3342.61" type="priority"/>
    <node id="10286033810" x="2904.57" y="3343.09" type="priority"/>
    <node id="10286033812" x="2693.51" y="3551.68" type="priority"/>
    <node id="10286033815" x="2694.24" y="3562.76" type="priority"/>
    <node id="10286033816" x="2612.40" y="3577.39" type="dead_end"/>
    <node id="10286033817" x="2534.43" y="3582.29" type="priority"/>
    <node id="10286033818" x="2694.88" y="3572.19" type="priority"/>
    <node id="10286033821" x="2744.16" y="3652.79" type="priority"/>
    <node id="10286033822" x="2790.45" y="3688.82" type="dead_end"/>
    <node id="10286033823" x="2768.82" y="3577.40" type="right_before_left"/>
    <node id="10286033824" x="2772.35" y="3637.65" type="priority"/>
    <node id="10286033825" x="2806.74" y="3634.80" type="right_before_left"/>
    <node id="10286033826" x="2802.88" y="3575.09" type="priority"/>
    <node id="10286033829" x="2784.78" y="3576.20" type="right_before_left"/>
    <node id="10286033832" x="2789.23" y="3636.16" type="priority"/>
    <node id="10286033833" x="2784.43" y="3571.43" type="right_before_left"/>
    <node id="10286033834" x="2789.04" y="3651.40" type="priority"/>
    <node id="10286033838" x="2923.83" y="3714.73" type="priority"/>
    <node id="10286033846" x="2705.77" y="3730.23" type="priority"/>
    <node id="10286033854" x="3415.44" y="3287.74" type="priority"/>
    <node id="10286033855" x="2929.18" y="3599.66" type="priority"/>
    <node id="10286033860" x="3141.02" y="3613.01" type="priority"/>
    <node id="10286033865" x="3096.27" y="3630.54" type="priority"/>
    <node id="10286033872" x="3812.11" y="3289.73" type="dead_end"/>
    <node id="10286033873" x="3838.18" y="3257.22" type="dead_end"/>
    <node id="10286033875" x="3856.82" y="3305.27" type="dead_end"/>
    <node id="10286033877" x="3793.69" y="3221.96" type="dead_end"/>
    <node id="10286033878" x="3768.42" y="3253.97" type="dead_end"/>
    <node id="10286033879" x="3743.90" y="3285.34" type="dead_end"/>
    <node id="10286033880" x="3794.05" y="3274.89" type="dead_end"/>
    <node id="10286033881" x="3741.55" y="3232.05" type="dead_end"/>
    <node id="10286033883" x="3769.46" y="3305.50" type="dead_end"/>
    <node id="10286033884" x="3819.97" y="3242.63" type="dead_end"/>
    <node id="10286033886" x="3520.66" y="3122.98" type="dead_end"/>
    <node id="10286033887" x="3572.20" y="3089.22" type="dead_end"/>
    <node id="10286033888" x="3592.47" y="3066.41" type="dead_end"/>
    <node id="10286033889" x="3604.12" y="3052.92" type="right_before_left"/>
    <node id="10286033890" x="3722.62" y="3171.76" type="dead_end"/>
    <node id="10286033891" x="3703.83" y="3194.55" type="dead_end"/>
    <node id="10286033892" x="3686.37" y="3217.15" type="dead_end"/>
    <node id="10286033893" x="3654.11" y="3258.20" type="dead_end"/>
    <node id="10286033898" x="3558.76" y="3240.38" type="dead_end"/>
    <node id="10286033899" x="3727.54" y="3249.59" type="dead_end"/>
    <node id="10286033900" x="3685.56" y="3283.27" type="dead_end"/>
    <node id="10286033901" x="3587.08" y="3204.78" type="dead_end"/>
    <node id="10286033902" x="3578.25" y="3198.49" type="dead_end"/>
    <node id="10286033903" x="3555.18" y="3109.77" type="dead_end"/>
    <node id="10286033904" x="3565.39" y="3151.18" type="dead_end"/>
    <node id="10286033905" x="3582.24" y="3132.78" type="dead_end"/>
    <node id="10286033906" x="3601.48" y="3112.47" type="dead_end"/>
    <node id="10286033907" x="3622.54" y="3089.53" type="dead_end"/>
    <node id="10286033908" x="3655.70" y="3118.56" type="dead_end"/>
    <node id="10286033909" x="3762.87" y="3203.75" type="dead_end"/>
    <node id="10286033910" x="3745.01" y="3227.71" type="dead_end"/>
    <node id="10286033911" x="3637.65" y="3141.24" type="dead_end"/>
    <node id="10286033912" x="3629.40" y="3134.63" type="dead_end"/>
    <node id="10286033913" x="3544.91" y="3067.56" type="dead_end"/>
    <node id="10286033916" x="3611.08" y="3157.32" type="dead_end"/>
    <node id="10286033919" x="3525.45" y="3084.48" type="dead_end"/>
    <node id="10286033920" x="3619.30" y="3164.30" type="dead_end"/>
    <node id="10286033921" x="3544.16" y="3258.73" type="priority"/>
    <node id="10286033922" x="3734.70" y="3156.10" type="priority"/>
    <node id="10286033923" x="2848.30" y="3864.86" type="priority"/>
    <node id="10286033929" x="2645.99" y="3958.49" type="priority"/>
    <node id="10286033936" x="3161.21" y="3468.63" type="priority"/>
    <node id="10286033938" x="3151.79" y="3510.37" type="dead_end"/>
    <node id="10286033939" x="3106.88" y="3512.66" type="priority"/>
    <node id="10286033941" x="3507.70" y="3595.12" type="priority"/>
    <node id="10286033945" x="3527.50" y="3939.64" type="priority"/>
    <node id="10286033946" x="3540.80" y="3949.67" type="priority"/>
    <node id="10286033947" x="3534.63" y="3937.94" type="priority"/>
    <node id="10286033948" x="3529.25" y="3927.55" type="priority"/>
    <node id="10286033950" x="3539.00" y="3979.84" type="priority"/>
    <node id="10286033952" x="3541.28" y="3979.04" type="priority"/>
    <node id="10286033954" x="3649.13" y="3960.34" type="priority"/>
    <node id="10286033955" x="3685.84" y="3947.88" type="dead_end"/>
    <node id="10286033959" x="3724.45" y="3949.24" type="dead_end"/>
    <node id="10286033960" x="3742.14" y="3989.74" type="priority"/>
    <node id="10286312057" x="2855.58" y="1017.30" type="right_before_left"/>
    <node id="10286312063" x="2875.05" y="956.89" type="right_before_left"/>
    <node id="10286312065" x="2864.05" y="918.17" type="priority"/>
    <node id="10286312069" x="2622.55" y="1604.32" type="dead_end"/>
    <node id="10286312071" x="2690.76" y="1581.37" type="priority"/>
    <node id="10286312083" x="2297.93" y="2505.07" type="dead_end"/>
    <node id="10286312094" x="2818.24" y="2354.61" type="priority"/>
    <node id="10286312095" x="2574.52" y="2506.39" type="priority"/>
    <node id="10286312098" x="2403.95" y="2510.76" type="priority"/>
    <node id="10286312102" x="2654.97" y="2125.96" type="priority"/>
    <node id="10286312104" x="2665.69" y="2123.18" type="priority"/>
    <node id="10286312105" x="2659.50" y="2096.76" type="right_before_left"/>
    <node id="10286312106" x="2674.77" y="2093.91" type="right_before_left"/>
    <node id="10286312108" x="2691.75" y="2097.38" type="right_before_left"/>
    <node id="10286333209" x="2698.62" y="2126.26" type="right_before_left"/>
    <node id="10286333214" x="2650.16" y="2098.37" type="right_before_left"/>
    <node id="10286333228" x="2818.54" y="2029.85" type="right_before_left"/>
    <node id="10286333229" x="2918.39" y="2019.33" type="priority"/>
    <node id="10286333230" x="2848.04" y="2039.62" type="right_before_left"/>
    <node id="10286333231" x="2859.98" y="2083.15" type="priority"/>
    <node id="10286333250" x="2954.72" y="2357.24" type="priority"/>
    <node id="10286333254" x="2942.96" y="2198.21" type="priority"/>
    <node id="10286333255" x="2927.80" y="2171.53" type="priority"/>
    <node id="10286519723" x="1517.63" y="832.21" type="right_before_left"/>
    <node id="10286519724" x="1535.73" y="839.01" type="priority"/>
    <node id="10286519725" x="1526.60" y="835.46" type="priority"/>
    <node id="10286519755" x="1332.94" y="1043.27" type="priority"/>
    <node id="10286519756" x="1265.19" y="1037.80" type="priority"/>
    <node id="10286519764" x="1311.92" y="1168.95" type="priority"/>
    <node id="10286519785" x="1256.24" y="955.14" type="priority"/>
    <node id="10286519793" x="1133.44" y="909.81" type="priority"/>
    <node id="10286519802" x="1213.64" y="908.91" type="priority"/>
    <node id="10286519807" x="1286.09" y="921.50" type="priority"/>
    <node id="10286519808" x="1319.56" y="911.97" type="priority"/>
    <node id="1110966846" x="2257.73" y="3715.52" type="priority"/>
    <node id="11137537998" x="3910.90" y="2191.87" type="right_before_left"/>
    <node id="11137537999" x="3781.17" y="2246.42" type="right_before_left"/>
    <node id="11137538000" x="3903.16" y="2173.58" type="right_before_left"/>
    <node id="11137538003" x="3917.46" y="2207.39" type="right_before_left"/>
    <node id="11137538004" x="3924.01" y="2222.85" type="right_before_left"/>
    <node id="11137538006" x="3929.31" y="2294.58" type="right_before_left"/>
    <node id="11137538010" x="3894.65" y="2153.08" type="priority"/>
    <node id="11220993812" x="2725.31" y="2713.92" type="priority"/>
    <node id="11443067055" x="2061.91" y="2792.90" type="priority"/>
    <node id="11443067057" x="2071.13" y="2807.50" type="priority"/>
    <node id="11443067059" x="2175.49" y="2841.99" type="priority"/>
    <node id="11443067063" x="2172.67" y="2783.42" type="priority"/>
    <node id="11443067068" x="2202.42" y="2796.55" type="priority"/>
    <node id="11443067369" x="2184.19" y="2780.70" type="priority"/>
    <node id="11443067372" x="2186.45" y="2751.22" type="priority"/>
    <node id="11443067373" x="2278.77" y="2758.15" type="priority"/>
    <node id="11443067374" x="2273.76" y="2712.37" type="priority"/>
    <node id="11443067375" x="2294.29" y="2755.84" type="priority"/>
    <node id="11443067378" x="2294.08" y="2711.74" type="priority"/>
    <node id="11443067379" x="2314.42" y="2753.73" type="priority"/>
    <node id="11443067380" x="2311.88" y="2726.33" type="priority"/>
    <node id="11443067381" x="2354.82" y="2753.37" type="priority"/>
    <node id="11443067383" x="2356.46" y="2689.14" type="priority"/>
    <node id="11497048293" x="2351.08" y="3260.43" type="right_before_left"/>
    <node id="11497048300" x="2261.24" y="3188.72" type="priority"/>
    <node id="11497048301" x="2374.71" y="3259.15" type="priority"/>
    <node id="11497048306" x="2370.31" y="3201.86" type="priority"/>
    <node id="11497048307" x="2489.59" y="3445.67" type="priority"/>
    <node id="11505091173" x="2966.25" y="2323.17" type="priority"/>
    <node id="11509650066" x="1898.69" y="1571.61" type="priority"/>
    <node id="11509668372" x="1887.98" y="1574.50" type="priority"/>
    <node id="11527789791" x="3034.83" y="3659.83" type="priority"/>
    <node id="11527789799" x="2548.55" y="3209.32" type="priority"/>
    <node id="11527789803" x="2904.46" y="3109.43" type="priority"/>
    <node id="11527789809" x="4082.72" y="3344.56" type="right_before_left"/>
    <node id="11527789810" x="4134.21" y="3374.26" type="priority"/>
    <node id="11527789811" x="4084.82" y="3341.81" type="right_before_left"/>
    <node id="11527789812" x="4125.28" y="3387.13" type="priority"/>
    <node id="11527789813" x="4074.50" y="3355.34" type="right_before_left"/>
    <node id="11565617545" x="3714.20" y="3769.01" type="dead_end"/>
    <node id="11565617547" x="3843.94" y="3806.90" type="priority"/>
    <node id="11565688132" x="3786.82" y="3839.29" type="priority"/>
    <node id="11565688133" x="3771.22" y="3815.45" type="right_before_left"/>
    <node id="11565688137" x="3790.05" y="3814.38" type="priority"/>
    <node id="11565688138" x="3751.33" y="3817.97" type="priority"/>
    <node id="11749813056" x="2606.90" y="1793.80" type="priority"/>
    <node id="11749813057" x="2608.09" y="1791.97" type="priority"/>
    <node id="11773954913" x="1756.18" y="853.32" type="priority"/>
    <node id="11773954914" x="1730.66" y="873.76" type="right_before_left"/>
    <node id="11773954916" x="1746.55" y="839.89" type="priority"/>
    <node id="11787490510" x="1713.09" y="882.67" type="right_before_left"/>
    <node id="11787490513" x="1700.94" y="833.79" type="priority"/>
    <node id="11787490514" x="1690.09" y="893.52" type="right_before_left"/>
    <node id="11787490515" x="1709.93" y="896.96" type="priority"/>
    <node id="11787490517" x="1697.52" y="852.62" type="right_before_left"/>
    <node id="12230195600" x="3512.87" y="3605.49" type="priority"/>
    <node id="12230201402" x="3555.24" y="3307.10" type="right_before_left"/>
    <node id="12230201403" x="3496.42" y="2996.79" type="priority"/>
    <node id="12230201405" x="3530.84" y="3604.10" type="priority"/>
    <node id="12230201406" x="3540.54" y="3395.44" type="priority"/>
    <node id="12230201409" x="3523.88" y="3612.96" type="priority"/>
    <node id="12230201420" x="3550.80" y="3306.64" type="priority"/>
    <node id="12230201422" x="3559.44" y="3306.98" type="priority"/>
    <node id="12230201425" x="3518.48" y="3612.50" type="priority"/>
    <node id="12230201427" x="3525.48" y="3595.91" type="priority"/>
    <node id="1223199301" x="4395.00" y="3654.12" type="priority"/>
    <node id="12246889370" x="3796.30" y="2230.87" type="right_before_left"/>
    <node id="12246889372" x="3649.12" y="2441.72" type="priority"/>
    <node id="12246889373" x="3639.67" y="2523.18" type="priority"/>
    <node id="12246902507" x="3931.63" y="2365.54" type="right_before_left"/>
    <node id="12246902514" x="3836.03" y="2407.95" type="priority"/>
    <node id="12246902518" x="3941.65" y="2393.22" type="right_before_left"/>
    <node id="12246902560" x="3873.23" y="2238.14" type="right_before_left"/>
    <node id="12246902565" x="3859.08" y="2205.05" type="right_before_left"/>
    <node id="12246902566" x="3854.56" y="2193.72" type="right_before_left"/>
    <node id="12246902567" x="3862.02" y="2212.42" type="right_before_left"/>
    <node id="12246902568" x="3872.29" y="2235.04" type="right_before_left"/>
    <node id="12246902570" x="3909.11" y="2237.44" type="right_before_left"/>
    <node id="12246902571" x="3927.33" y="2230.70" type="right_before_left"/>
    <node id="12246902572" x="3898.77" y="2243.14" type="right_before_left"/>
    <node id="12246902573" x="3907.15" y="2230.15" type="right_before_left"/>
    <node id="12246902574" x="3868.51" y="2227.89" type="right_before_left"/>
    <node id="12246902576" x="3791.63" y="2219.79" type="right_before_left"/>
    <node id="12246902577" x="3799.60" y="2238.68" type="right_before_left"/>
    <node id="12246902578" x="3806.08" y="2254.04" type="right_before_left"/>
    <node id="12330423896" x="2899.37" y="2643.62" type="priority"/>
    <node id="12331496845" x="2082.56" y="1499.68" type="priority"/>
    <node id="12331496851" x="2065.54" y="1458.40" type="priority"/>
    <node id="12331496869" x="2151.86" y="2426.00" type="priority"/>
    <node id="12331496878" x="2511.54" y="1803.94" type="priority"/>
    <node id="12331496879" x="2516.40" y="1832.99" type="right_before_left"/>
    <node id="12331496880" x="2581.35" y="1815.38" type="priority"/>
    <node id="12331496881" x="2563.57" y="1816.40" type="right_before_left"/>
    <node id="12331496882" x="2608.81" y="1888.63" type="priority"/>
    <node id="12331496885" x="2572.95" y="1789.68" type="priority"/>
    <node id="12331496899" x="2694.32" y="1600.48" type="dead_end"/>
    <node id="12331496900" x="2700.38" y="1602.55" type="dead_end"/>
    <node id="12331526701" x="2704.56" y="1607.73" type="dead_end"/>
    <node id="12331526801" x="2849.89" y="1593.82" type="priority"/>
    <node id="12331526806" x="2850.79" y="1541.48" type="priority"/>
    <node id="124168026" x="2904.02" y="803.53" type="priority"/>
    <node id="124168255" x="1931.39" y="1067.53" type="traffic_light" tl="GS_124168255"/>
    <node id="124168382" x="2757.80" y="1206.67" type="priority"/>
    <node id="124168404" x="2781.22" y="1076.14" type="priority"/>
    <node id="12688203677" x="2160.47" y="2921.77" type="priority"/>
    <node id="131847132" x="4027.82" y="4419.54" type="priority"/>
    <node id="131847139" x="4343.31" y="3680.13" type="priority"/>
    <node id="131847140" x="4377.46" y="3653.79" type="priority"/>
    <node id="131850566" x="2089.83" y="1635.52" type="traffic_light" tl="131850566"/>
    <node id="131850567" x="2054.20" y="1507.36" type="traffic_light" tl="131850567"/>
    <node id="131850709" x="2407.73" y="1736.87" type="priority"/>
    <node id="131850797" x="2353.44" y="2059.26" type="priority"/>
    <node id="131851079" x="3052.72" y="2499.91" type="priority"/>
    <node id="131851080" x="3049.01" y="2467.00" type="traffic_light" tl="joinedS_131851080_574428352" controlledInner="-598732995 598732995"/>
    <node id="131851083" x="3035.32" y="2449.97" type="priority"/>
    <node id="131851085" x="2911.61" y="2306.12" type="right_before_left"/>
    <node id="131851087" x="2793.55" y="2304.79" type="priority"/>
    <node id="131851091" x="2729.85" y="2332.16" type="right_before_left"/>
    <node id="131851093" x="2657.72" y="2338.87" type="right_before_left"/>
    <node id="131851095" x="2653.01" y="2238.43" type="priority"/>
    <node id="131851100" x="2636.24" y="2089.47" type="priority"/>
    <node id="131851102" x="2557.70" y="2103.49" type="priority"/>
    <node id="132245033" x="4362.59" y="3629.60" type="priority"/>
    <node id="132245034" x="4382.87" y="3607.78" type="priority"/>
    <node id="132245036" x="4410.43" y="3635.65" type="priority"/>
    <node id="132247218" x="4209.06" y="3525.38" type="priority"/>
    <node id="132247220" x="4007.64" y="3370.05" type="priority"/>
    <node id="132247221" x="3885.07" y="3274.85" type="priority"/>
    <node id="132247227" x="3572.78" y="2995.37" type="priority"/>
    <node id="132247232" x="3463.04" y="2873.92" type="priority"/>
    <node id="132247239" x="3044.75" y="2638.37" type="priority"/>
    <node id="132247240" x="3032.60" y="2627.77" type="priority"/>
    <node id="132247565" x="3039.22" y="2589.05" type="priority"/>
    <node id="1507295310" x="1734.79" y="1627.70" type="priority"/>
    <node id="1507295311" x="1714.70" y="1667.68" type="priority"/>
    <node id="1512711206" x="3535.17" y="3627.81" type="priority"/>
    <node id="1512711230" x="2715.99" y="3168.92" type="priority"/>
    <node id="1512711242" x="2632.29" y="4124.95" type="priority"/>
    <node id="1512711243" x="2786.80" y="3524.43" type="priority"/>
    <node id="1512711272" x="2822.21" y="3488.89" type="priority"/>
    <node id="1512711301" x="2710.49" y="3823.14" type="priority"/>
    <node id="1512711332" x="2435.20" y="3585.15" type="priority"/>
    <node id="1512711334" x="2531.81" y="3541.18" type="priority"/>
    <node id="1512711336" x="2949.94" y="3685.92" type="priority"/>
    <node id="1512711356" x="2852.48" y="2918.34" type="priority"/>
    <node id="1512711365" x="3522.57" y="3595.17" type="priority"/>
    <node id="1512711369" x="2815.80" y="3836.71" type="priority"/>
    <node id="1512711396" x="2661.56" y="3816.10" type="priority"/>
    <node id="1512711399" x="2692.21" y="3530.90" type="priority"/>
    <node id="1512711406" x="3104.45" y="3471.89" type="priority"/>
    <node id="1512711418" x="3530.85" y="3605.17" type="priority"/>
    <node id="1512711441" x="2517.43" y="3366.21" type="priority"/>
    <node id="1512711447" x="3067.15" y="3338.51" type="priority"/>
    <node id="1512711453" x="2489.67" y="3180.75" type="priority"/>
    <node id="1512711457" x="3493.10" y="3005.54" type="priority"/>
    <node id="1512711468" x="3527.37" y="3906.11" type="priority"/>
    <node id="1512711499" x="2546.64" y="3065.63" type="priority"/>
    <node id="1512711501" x="2876.26" y="3657.10" type="priority"/>
    <node id="1512711503" x="3550.52" y="3558.94" type="priority"/>
    <node id="1512826174" x="2719.18" y="3224.66" type="priority"/>
    <node id="1512826175" x="1952.86" y="3310.13" type="priority"/>
    <node id="1512826178" x="2524.25" y="3364.31" type="priority"/>
    <node id="1512826181" x="2801.03" y="3163.15" type="priority"/>
    <node id="1512826182" x="2907.84" y="3399.16" type="priority"/>
    <node id="1512826187" x="2819.48" y="3447.98" type="priority"/>
    <node id="1512826189" x="2452.02" y="2984.30" type="priority"/>
    <node id="1512826191" x="2537.73" y="3780.49" type="priority"/>
    <node id="1512826194" x="2571.49" y="3344.97" type="priority"/>
    <node id="1512826205" x="3612.74" y="4003.12" type="priority"/>
    <node id="1512826209" x="2215.90" y="3428.59" type="priority"/>
    <node id="1512826212" x="2761.83" y="3221.75" type="dead_end"/>
    <node id="1512826222" x="2708.57" y="3769.42" type="priority"/>
    <node id="1512826249" x="2967.20" y="3234.89" type="priority"/>
    <node id="1512826263" x="1942.73" y="3512.94" type="priority"/>
    <node id="1512826266" x="3347.08" y="3662.67" type="priority"/>
    <node id="1512826271" x="2523.72" y="3341.81" type="priority"/>
    <node id="1512826273" x="3211.58" y="3550.06" type="priority"/>
    <node id="1512826287" x="1913.88" y="3588.15" type="priority"/>
    <node id="1512826290" x="2812.13" y="3332.49" type="priority"/>
    <node id="1512826291" x="3169.69" y="3468.16" type="priority"/>
    <node id="1512826292" x="3385.20" y="3494.71" type="priority"/>
    <node id="1512826294" x="2504.91" y="3356.67" type="priority"/>
    <node id="1512826297" x="3099.56" y="3385.47" type="priority"/>
    <node id="1512826309" x="2490.75" y="3360.01" type="priority"/>
    <node id="1512826312" x="2131.43" y="3512.26" type="priority"/>
    <node id="1512826314" x="2726.52" y="3337.65" type="priority"/>
    <node id="1512826318" x="2910.60" y="3729.32" type="priority"/>
    <node id="1512826321" x="2858.97" y="3788.81" type="priority"/>
    <node id="1512826323" x="2841.86" y="3290.52" type="priority"/>
    <node id="1512826330" x="2724.66" y="3307.76" type="priority"/>
    <node id="1512826350" x="3653.38" y="4031.63" type="priority"/>
    <node id="1512826356" x="3307.29" y="3618.51" type="priority"/>
    <node id="1512826361" x="2203.60" y="3512.84" type="priority"/>
    <node id="1512826375" x="2911.13" y="3160.08" type="priority"/>
    <node id="1512826383" x="2732.99" y="3452.47" type="priority"/>
    <node id="1512826407" x="3485.48" y="3587.00" type="priority"/>
    <node id="1512826409" x="2804.93" y="3219.08" type="priority"/>
    <node id="1512826422" x="3547.07" y="3954.43" type="priority"/>
    <node id="1512826438" x="3528.36" y="3976.85" type="priority"/>
    <node id="1512826441" x="1898.49" y="3606.33" type="priority"/>
    <node id="1512826445" x="2243.29" y="3548.45" type="priority"/>
    <node id="1512826451" x="2753.62" y="3826.87" type="priority"/>
    <node id="1512826453" x="2569.91" y="3318.97" type="priority"/>
    <node id="1512826466" x="2901.02" y="3287.31" type="priority"/>
    <node id="1512826468" x="3341.34" y="3666.55" type="priority"/>
    <node id="1512826477" x="2984.13" y="3087.71" type="priority"/>
    <node id="1512826484" x="2768.23" y="3333.99" type="priority"/>
    <node id="1512826492" x="3527.06" y="3953.86" type="priority"/>
    <node id="1512826504" x="2963.37" y="3776.11" type="priority"/>
    <node id="1512826506" x="2816.94" y="3405.16" type="priority"/>
    <node id="1512826508" x="1922.98" y="3563.69" type="priority"/>
    <node id="1512826510" x="1883.81" y="3513.42" type="priority"/>
    <node id="1512826511" x="3493.70" y="3614.95" type="priority"/>
    <node id="1512826522" x="2911.09" y="3834.61" type="priority"/>
    <node id="1512826524" x="2932.71" y="3258.33" type="priority"/>
    <node id="1512826538" x="3548.33" y="3970.13" type="priority"/>
    <node id="1577455375" x="1764.01" y="2609.11" type="priority"/>
    <node id="1577455387" x="1360.57" y="4971.55" type="priority"/>
    <node id="1607526434" x="5012.97" y="2260.15" type="dead_end"/>
    <node id="1640283148" x="4450.79" y="201.47" type="priority"/>
    <node id="1640283229" x="3421.21" y="1286.66" type="dead_end" fringe="inner">
        <param key="buffer_stop" value="true"/>
    </node>
    <node id="1640283230" x="3395.79" y="1286.19" type="priority"/>
    <node id="1640283231" x="3487.49" y="1290.75" type="priority"/>
    <node id="1640283235" x="3426.97" y="1309.83" type="dead_end" fringe="inner">
        <param key="buffer_stop" value="true"/>
    </node>
    <node id="1640283236" x="3427.52" y="1314.24" type="dead_end" fringe="inner">
        <param key="buffer_stop" value="true"/>
    </node>
    <node id="1640283238" x="3425.96" y="1322.68" type="dead_end" fringe="inner">
        <param key="buffer_stop" value="true"/>
    </node>
    <node id="1640283239" x="3424.57" y="1327.14" type="dead_end" fringe="inner">
        <param key="buffer_stop" value="true"/>
    </node>
    <node id="1640283241" x="3622.11" y="1336.35" type="priority"/>
    <node id="1640283245" x="3393.02" y="1352.43" type="priority"/>
    <node id="1640283250" x="3690.36" y="1371.25" type="priority"/>
    <node id="1640283256" x="3714.49" y="1385.80" type="priority"/>
    <node id="1640283258" x="3713.36" y="1388.51" type="priority"/>
    <node id="1640283259" x="3743.06" y="1401.43" type="priority"/>
    <node id="1640283278" x="4198.17" y="1741.78" type="priority"/>