<edges xmlns:xsi="http://www.w3.org/2001/XMLSchema-instance" version="1.16" xsi:noNamespaceSchemaLocation="http://sumo.dlr.de/xsd/edges_file.xsd">
    <location netOffset="-493974.45,-5356986.57" convBoundary="0.00,0.00,6105.16,5597.29" origBoundary="2.899129,48.366048,3.027264,48.449029" projParameter="+proj=utm +zone=31 +ellps=WGS84 +datum=WGS84 +units=m +no_defs" />

    <edge id="-1030420532#0" from="124168382" to="2129346187" priority="10" type="highway.tertiary" numLanes="1" speed="22.22" shape="2757.80,1206.67 2753.83,1206.03 2748.67,1205.43" disallow="tram rail_urban rail rail_electric rail_fast ship" />
    <edge id="-1030420532#1" from="3050120147" to="124168382" priority="10" type="highway.tertiary" numLanes="1" speed="22.22" disallow="tram rail_urban rail rail_electric rail_fast ship" />
    <edge id="-1030420532#2" from="567531901" to="3050120147" priority="10" type="highway.tertiary" numLanes="1" speed="22.22" shape="2812.72,1214.15 2808.93,1213.68 2806.05,1213.42" disallow="tram rail_urban rail rail_electric rail_fast ship" />
    <edge id="-1057732879" from="9719037123" to="9719037124" priority="4" type="highway.unclassified" numLanes="1" speed="13.89" disallow="tram rail_urban rail rail_electric rail_fast ship" />
    <edge id="-1057963241" from="1512826209" to="2008944925" priority="3" type="highway.residential" numLanes="1" speed="13.89" shape="2215.90,3428.59 2216.03,3436.96 2216.36,3446.43 2213.63,3472.57 2210.35,3508.14 2208.04,3514.76" disallow="tram rail_urban rail rail_electric rail_fast ship" />
    <edge id="-1078011422" from="131850567" to="2008945095" priority="11" type="highway.secondary" numLanes="1" speed="27.78" shape="2054.20,1507.36 2041.29,1511.12 2036.78,1512.33 1917.85,1544.30" disallow="tram rail_urban rail rail_electric rail_fast ship">
        <param key="ref" value="D 28" />
    </edge>
    <edge id="-1078131360" from="1507295311" to="2008944927" priority="3" type="highway.residential" numLanes="1" speed="13.89" shape="1714.70,1667.68 1715.15,1664.39 1715.52,1658.28" disallow="tram rail_urban rail rail_electric rail_fast ship" />
    <edge id="-1078131375" from="9884522634" to="444027150" priority="3" type="highway.residential" numLanes="1" speed="13.89" disallow="tram rail_urban rail rail_electric rail_fast ship" />
    <edge id="-1080087099" from="3050087374" to="131850566" priority="10" type="highway.tertiary" numLanes="1" speed="13.89" disallow="tram rail_urban rail rail_electric rail_fast ship">
        <param key="ref" value="D 206a" />
    </edge>
    <edge id="-1102648499" from="195488892" to="3995098876" priority="12" type="highway.primary" numLanes="2" speed="13.89" shape="2892.20,1721.64 2914.76,1785.91 2929.63,1824.14" disallow="tram rail_urban rail rail_electric rail_fast ship">
        <param key="ref" value="D 605" />
    </edge>
    <edge id="-1123562672#0" from="10275185494" to="10275185620" priority="4" type="highway.unclassified" numLanes="1" speed="13.89" shape="1483.85,922.10 1465.83,958.63 1462.61,965.86 1459.85,984.08 1459.24,988.55" disallow="tram rail_urban rail rail_electric rail_fast ship" />
    <edge id="-1123562672#1" from="10286519725" to="10275185494" priority="4" type="highway.unclassified" numLanes="1" speed="13.89" disallow="tram rail_urban rail rail_electric rail_fast ship" />
    <edge id="-1124801902" from="10285933781" to="2271865625" priority="3" type="highway.residential" numLanes="1" speed="13.89" shape="2579.43,2647.55 2580.61,2668.31 2580.80,2671.69" disallow="tram rail_urban rail rail_electric rail_fast ship" />
    <edge id="-1124801903" from="2128950945" to="2128950975" priority="3" type="highway.residential" numLanes="1" speed="13.89" disallow="tram rail_urban rail rail_electric rail_fast ship" />
    <edge id="-1124801904" from="450971537" to="2128950975" priority="3" type="highway.residential" numLanes="1" speed="13.89" disallow="tram rail_urban rail rail_electric rail_fast ship" />
    <edge id="-1124801905#0" from="11443067055" to="10285933790" priority="3" type="highway.residential" numLanes="1" speed="13.89" shape="2061.91,2792.90 2065.48,2791.82 2073.62,2790.53 2082.46,2791.51 2090.42,2795.55" disallow="tram rail_urban rail rail_electric rail_fast ship" />
    <edge id="-1124801905#1" from="10285933785" to="11443067055" priority="3" type="highway.residential" numLanes="1" speed="13.89" shape="2021.02,2810.16 2040.17,2799.47 2061.91,2792.90" disallow="tram rail_urban rail rail_electric rail_fast ship" />
    <edge id="-1124801915" from="1512826309" to="1512826294" priority="3" type="highway.residential" numLanes="1" speed="13.89" shape="2490.75,3360.01 2497.54,3357.93 2504.91,3356.67" disallow="tram rail_urban rail rail_electric rail_fast ship" />
    <edge id="-1124801916" from="1512711332" to="5327911439" priority="3" type="highway.residential" numLanes="1" speed="13.89" shape="2435.20,3585.15 2425.33,3584.82 2399.40,3583.96 2395.38,3585.25" disallow="tram rail_urban rail rail_electric rail_fast ship" />
    <edge id="-1124801926" from="1512826506" to="1512826187" priority="3" type="highway.residential" numLanes="1" speed="13.89" shape="2816.94,3405.16 2819.09,3439.37 2819.48,3447.98" disallow="tram rail_urban rail rail_electric rail_fast ship" />
    <edge id="-1124863087#0" from="1738029691" to="443977107" priority="3" type="highway.residential" numLanes="1" speed="13.89" disallow="tram rail_urban rail rail_electric rail_fast ship" />
    <edge id="-1124863087#1" from="456040110" to="1738029691" priority="3" type="highway.residential" numLanes="1" speed="13.89" shape="1988.06,752.65 1986.39,771.88 1977.15,878.63 1975.75,891.68" disallow="tram rail_urban rail rail_electric rail_fast ship" />
    <edge id="-1238964976#0" from="9721205939" to="2130656756" priority="10" type="highway.tertiary" numLanes="1" speed="22.22" disallow="tram rail_urban rail rail_electric rail_fast ship" />
    <edge id="-1249682048#0" from="5602898760" to="443977105" priority="11" type="highway.secondary" numLanes="1" speed="27.78" shape="1803.81,853.60 1800.89,849.14 1787.95,830.30 1729.69,743.88 1705.81,709.53" disallow="tram rail_urban rail rail_electric rail_fast ship">
        <param key="ref" value="D 403" />
    </edge>
    <edge id="-1249682048#1" from="444026651" to="5602898760" priority="11" type="highway.secondary" numLanes="1" speed="27.78" disallow="tram rail_urban rail rail_electric rail_fast ship">
        <param key="ref" value="D 403" />
    </edge>
    <edge id="-1249682049" from="5602898757" to="11773954913" priority="3" type="highway.residential" numLanes="1" speed="13.89" shape="1787.43,872.32 1781.49,871.32 1770.10,868.85 1765.57,865.62 1759.31,857.54 1756.18,853.32" disallow="tram rail_urban rail rail_electric rail_fast ship" />
    <edge id="-1249682050" from="444026651" to="5602898757" priority="3" type="highway.residential" numLanes="1" speed="13.89" disallow="tram rail_urban rail rail_electric rail_fast ship" />
    <edge id="-1249682051" from="443977111" to="444026651" priority="11" type="highway.secondary" numLanes="1" speed="27.78" shape="1881.49,963.60 1874.81,954.33 1864.22,939.66 1845.96,914.40 1829.50,890.26 1821.16,878.49" disallow="tram rail_urban rail rail_electric rail_fast ship">
        <param key="ref" value="D 403" />
    </edge>
    <edge id="-1321667098#0" from="2130789483" to="1512711206" priority="10" type="highway.tertiary" numLanes="1" speed="22.22" shape="3535.33,3653.34 3535.85,3648.07 3535.17,3627.81" disallow="tram rail_urban rail rail_electric rail_fast ship" />
    <edge id="-1321667099#0" from="1512826511" to="427669692" priority="10" type="highway.tertiary" numLanes="1" speed="22.22" disallow="tram rail_urban rail rail_electric rail_fast ship" />
    <edge id="-1321667099#1" from="3257591562" to="1512826511" priority="10" type="highway.tertiary" numLanes="1" speed="22.22" shape="3438.21,3623.26 3454.30,3621.61 3485.28,3616.40 3493.70,3614.95" disallow="tram rail_urban rail rail_electric rail_fast ship" />
    <edge id="-1321667099#2" from="1512826266" to="3257591562" priority="10" type="highway.tertiary" numLanes="1" speed="22.22" shape="3347.08,3662.67 3350.10,3660.71 3390.15,3633.49 3414.61,3627.04 3438.21,3623.26" disallow="tram rail_urban rail rail_electric rail_fast ship" />
    <edge id="-1321667099#3" from="1512826468" to="1512826266" priority="10" type="highway.tertiary" numLanes="1" speed="22.22" disallow="tram rail_urban rail rail_electric rail_fast ship" />
    <edge id="-1321667099#4" from="2130789650" to="1512826468" priority="10" type="highway.tertiary" numLanes="1" speed="22.22" shape="3280.39,3703.95 3287.07,3701.34 3302.27,3694.46 3317.86,3684.77 3339.73,3667.80 3341.34,3666.55" disallow="tram rail_urban rail rail_electric rail_fast ship" />
    <edge id="-1321667099#5" from="2130789383" to="2130789650" priority="10" type="highway.tertiary" numLanes="1" speed="22.22" shape="3148.37,3716.42 3161.42,3715.73 3204.44,3711.30 3256.70,3707.02 3274.38,3705.09 3280.39,3703.95" disallow="tram rail_urban rail rail_electric rail_fast ship" />
    <edge id="-1332809428#0" from="2129468645" to="2129469009" priority="3" type="highway.residential" numLanes="1" speed="13.89" shape="3567.79,4106.03 3568.38,4093.17 3566.59,4082.88 3559.63,4068.83 3546.13,4054.98 3536.40,4050.03 3523.30,4047.27" disallow="tram rail_urban rail rail_electric rail_fast ship" />
    <edge id="-1332936425" from="2008944987" to="195488839" priority="3" type="highway.residential" numLanes="1" speed="13.89" shape="2144.32,2502.66 2149.39,2453.98 2149.43,2450.53" disallow="tram rail_urban rail rail_electric rail_fast ship" />
    <edge id="-1332936426" from="195488839" to="12331496869" priority="3" type="highway.residential" numLanes="1" speed="13.89" shape="2149.43,2450.53 2150.06,2446.37 2151.86,2426.00" disallow="tram rail_urban rail rail_electric rail_fast ship" />
    <edge id="-13513631#2" from="1738029688" to="124168255" priority="10" type="highway.tertiary" numLanes="1" speed="22.22" shape="1949.57,1070.84 1946.81,1070.33 1942.79,1069.60 1931.39,1067.53" disallow="tram rail_urban rail rail_electric rail_fast ship" />
    <edge id="-137390538#0" from="451721278" to="3050087374" priority="11" type="highway.secondary" numLanes="1" speed="13.89" shape="2040.62,1618.63 2072.67,1629.61 2079.12,1631.82" disallow="tram rail_urban rail rail_electric rail_fast ship">
        <param key="ref" value="D 206a" />
    </edge>
    <edge id="-137390538#1" from="11509650066" to="451721278" priority="11" type="highway.secondary" numLanes="1" speed="13.89" shape="1898.69,1571.61 1901.23,1573.94 1904.37,1575.79 1916.02,1579.30 2040.62,1618.63" disallow="tram rail_urban rail rail_electric rail_fast ship">
        <param key="ref" value="D 206a" />
    </edge>
    <edge id="-137390626" from="131850567" to="131850566" priority="11" type="highway.secondary" numLanes="1" speed="13.89" shape="2054.20,1507.36 2056.35,1514.84 2058.36,1521.81 2071.93,1568.89 2083.54,1613.16 2085.43,1620.35 2089.83,1635.52" disallow="tram rail_urban rail rail_electric rail_fast ship">
        <param key="ref" value="D 403" />
    </edge>
    <edge id="-137957779#0" from="1512711336" to="427670008" priority="3" type="highway.residential" numLanes="1" speed="13.89" shape="2949.94,3685.92 2956.03,3691.59 2995.86,3727.00 3002.03,3732.41" disallow="tram rail_urban rail rail_electric rail_fast ship" />
    <edge id="-137957779#1" from="1512711501" to="1512711336" priority="3" type="highway.residential" numLanes="1" speed="13.89" shape="2876.26,3657.10 2909.27,3654.72 2916.43,3657.29 2941.63,3677.94 2949.94,3685.92" disallow="tram rail_urban rail rail_electric rail_fast ship" />
    <edge id="-137957781#0" from="1512826222" to="1512711301" priority="3" type="highway.residential" numLanes="1" speed="13.89" shape="2708.57,3769.42 2711.30,3815.22 2710.49,3823.14" disallow="tram rail_urban rail rail_electric rail_fast ship" />
    <edge id="-137957781#1" from="5327911444" to="1512826222" priority="3" type="highway.residential" numLanes="1" speed="13.89" shape="2706.99,3747.74 2708.02,3764.16 2708.57,3769.42" disallow="tram rail_urban rail rail_electric rail_fast ship" />
    <edge id="-137957781#2" from="10286033846" to="5327911444" priority="3" type="highway.residential" numLanes="1" speed="13.89" disallow="tram rail_urban rail rail_electric rail_fast ship" />
    <edge id="-137957781#3" from="8021997597" to="10286033846" priority="3" type="highway.residential" numLanes="1" speed="13.89" disallow="tram rail_urban rail rail_electric rail_fast ship" />
    <edge id="-137957781#4" from="10286033818" to="8021997597" priority="3" type="highway.residential" numLanes="1" speed="13.89" shape="2694.88,3572.19 2700.86,3659.59 2701.41,3667.49" disallow="tram rail_urban rail rail_electric rail_fast ship" />
    <edge id="-137957781#5" from="10286033815" to="10286033818" priority="3" type="highway.residential" numLanes="1" speed="13.89" disallow="tram rail_urban rail rail_electric rail_fast ship" />
    <edge id="-137957781#6" from="10286033812" to="10286033815" priority="3" type="highway.residential" numLanes="1" speed="13.89" shape="2693.51,3551.68 2693.76,3555.68 2694.24,3562.76" disallow="tram rail_urban rail rail_electric rail_fast ship" />
    <edge id="-137957781#7" from="1512711399" to="10286033812" priority="3" type="highway.residential" numLanes="1" speed="13.89" shape="2692.21,3530.90 2692.70,3538.81 2692.99,3543.41 2693.51,3551.68" disallow="tram rail_urban rail rail_electric rail_fast ship" />
    <edge id="-137957782#0" from="8021992731" to="1512711272" priority="3" type="highway.residential" numLanes="1" speed="13.89" shape="2903.14,3483.73 2836.31,3487.99 2826.56,3488.61 2822.21,3488.89" disallow="tram rail_urban rail rail_electric rail_fast ship" />
    <edge id="-137957782#1" from="4264313300" to="8021992731" priority="3" type="highway.residential" numLanes="1" speed="13.89" shape="2968.30,3479.58 2954.02,3480.49 2903.14,3483.73" disallow="tram rail_urban rail rail_electric rail_fast ship" />
    <edge id="-137957782#2" from="2129408356" to="4264313300" priority="3" type="highway.residential" numLanes="1" speed="13.89" shape="3013.83,3476.68 3001.65,3477.45 2982.04,3478.70 2977.48,3478.99 2968.30,3479.58" disallow="tram rail_urban rail rail_electric rail_fast ship" />
    <edge id="-137957782#3" from="4264288694" to="2129408356" priority="3" type="highway.residential" numLanes="1" speed="13.89" shape="3071.53,3473.00 3055.49,3474.02 3027.08,3475.84 3022.25,3476.14 3013.83,3476.68" disallow="tram rail_urban rail rail_electric rail_fast ship" />
    <edge id="-137957782#4" from="1512711406" to="4264288694" priority="3" type="highway.residential" numLanes="1" speed="13.89" shape="3104.45,3471.89 3091.32,3472.09 3071.53,3473.00" disallow="tram rail_urban rail rail_electric rail_fast ship" />
    <edge id="-137957784#0" from="1512826314" to="1512826383" priority="3" type="highway.residential" numLanes="1" speed="13.89" shape="2726.52,3337.65 2726.02,3346.59 2732.26,3442.65 2732.99,3452.47" disallow="tram rail_urban rail rail_electric rail_fast ship" />
    <edge id="-137957784#1" from="1512826330" to="1512826314" priority="3" type="highway.residential" numLanes="1" speed="13.89" disallow="tram rail_urban rail rail_electric rail_fast ship" />
    <edge id="-137957785#0" from="2130656837" to="1512711499" priority="3" type="highway.residential" numLanes="1" speed="13.89" disallow="tram rail_urban rail rail_electric rail_fast ship" />
    <edge id="-137957785#1" from="7052414974" to="2130656837" priority="3" type="highway.residential" numLanes="1" speed="13.89" shape="2577.03,3056.10 2558.13,3062.17 2552.41,3063.91" disallow="tram rail_urban rail rail_electric rail_fast ship" />
    <edge id="-137957785#2" from="7052469494" to="7052414974" priority="3" type="highway.residential" numLanes="1" speed="13.89" disallow="tram rail_urban rail rail_electric rail_fast ship" />
    <edge id="-137957785#3" from="7052469488" to="7052469494" priority="3" type="highway.residential" numLanes="1" speed="13.89" disallow="tram rail_urban rail rail_electric rail_fast ship" />
    <edge id="-137957785#4" from="7052469490" to="7052469488" priority="3" type="highway.residential" numLanes="1" speed="13.89" shape="2699.60,3013.87 2690.32,3020.20 2685.78,3021.63" disallow="tram rail_urban rail rail_electric rail_fast ship" />
    <edge id="-137957785#5" from="1512711356" to="7052469490" priority="3" type="highway.residential" numLanes="1" speed="13.89" shape="2852.48,2918.34 2780.42,2942.34 2757.39,2956.41 2740.33,2974.24 2710.96,3006.12 2699.60,3013.87" disallow="tram rail_urban rail rail_electric rail_fast ship" />
    <edge id="-137957786#0" from="7050191396" to="2130789383" priority="10" type="highway.tertiary" numLanes="1" speed="22.22" shape="3024.89,3750.42 3030.32,3752.84 3035.87,3754.20 3043.47,3754.10 3099.48,3729.14 3116.66,3723.08 3134.89,3719.30 3148.37,3716.42" disallow="tram rail_urban rail rail_electric rail_fast ship" />
    <edge id="-137957786#1" from="427670008" to="7050191396" priority="10" type="highway.tertiary" numLanes="1" speed="22.22" shape="3002.03,3732.41 3008.96,3737.78 3024.89,3750.42" disallow="tram rail_urban rail rail_electric rail_fast ship" />
    <edge id="-137957788#0" from="10286033929" to="1512711242" priority="4" type="highway.unclassified" numLanes="1" speed="13.89" shape="2645.99,3958.49 2646.51,4004.21 2640.59,4070.33 2632.29,4124.95" disallow="tram rail_urban rail rail_electric rail_fast ship" />
    <edge id="-137957788#1" from="1512711396" to="10286033929" priority="4" type="highway.unclassified" numLanes="1" speed="13.89" shape="2661.56,3816.10 2650.01,3877.93 2645.67,3929.79 2645.99,3958.49" disallow="tram rail_urban rail rail_electric rail_fast ship" />
    <edge id="-137957789#0" from="1512826321" to="1512711369" priority="3" type="highway.residential" numLanes="1" speed="13.89" shape="2858.97,3788.81 2852.92,3795.14 2819.15,3832.96 2815.80,3836.71" disallow="tram rail_urban rail rail_electric rail_fast ship" />
    <edge id="-137957789#1" from="1512826318" to="1512826321" priority="3" type="highway.residential" numLanes="1" speed="13.89" shape="2910.60,3729.32 2862.76,3784.45 2858.97,3788.81" disallow="tram rail_urban rail rail_electric rail_fast ship" />
    <edge id="-137957789#2" from="9721176908" to="1512826318" priority="3" type="highway.residential" numLanes="1" speed="13.89" disallow="tram rail_urban rail rail_electric rail_fast ship" />
    <edge id="-137957789#3" from="10286033838" to="9721176908" priority="3" type="highway.residential" numLanes="1" speed="13.89" disallow="tram rail_urban rail rail_electric rail_fast ship" />
    <edge id="-137957789#4" from="4264371194" to="10286033838" priority="3" type="highway.residential" numLanes="1" speed="13.89" disallow="tram rail_urban rail rail_electric rail_fast ship" />
    <edge id="-137957789#5" from="9721176912" to="4264371194" priority="3" type="highway.residential" numLanes="1" speed="13.89" disallow="tram rail_urban rail rail_electric rail_fast ship" />
    <edge id="-137957789#6" from="1512711336" to="9721176912" priority="3" type="highway.residential" numLanes="1" speed="13.89" shape="2949.94,3685.92 2943.43,3693.08 2929.57,3708.38" disallow="tram rail_urban rail rail_electric rail_fast ship" />
    <edge id="-137957789#7" from="7050191390" to="1512711336" priority="3" type="highway.residential" numLanes="1" speed="13.89" shape="2970.21,3663.53 2955.03,3679.02 2949.94,3685.92" disallow="tram rail_urban rail rail_electric rail_fast ship" />
    <edge id="-137959410#0" from="444027299" to="195698146" priority="3" type="highway.residential" numLanes="1" speed="13.89" shape="1861.29,1905.70 1857.49,1953.24 1856.74,1963.89" disallow="tram rail_urban rail rail_electric rail_fast ship" />
    <edge id="-137959410#1" from="195698139" to="444027299" priority="3" type="highway.residential" numLanes="1" speed="13.89" disallow="tram rail_urban rail rail_electric rail_fast ship" />
    <edge id="-137959410#2" from="195698133" to="195698139" priority="3" type="highway.residential" numLanes="1" speed="13.89" shape="1879.58,1678.93 1879.28,1682.16 1878.65,1689.71 1870.02,1797.78" disallow="tram rail_urban rail rail_electric rail_fast ship" />
    <edge id="-137959410#3" from="3050087371" to="195698133" priority="3" type="highway.residential" numLanes="1" speed="13.89" shape="1887.33,1579.37 1879.81,1675.56 1879.58,1678.93" disallow="tram rail_urban rail rail_electric rail_fast ship" />
    <edge id="-137959410#4" from="11509668372" to="3050087371" priority="3" type="highway.residential" numLanes="1" speed="13.89" shape="1887.98,1574.50 1887.83,1577.55 1887.33,1579.37" disallow="tram rail_urban rail rail_electric rail_fast ship" />
    <edge id="-137971468#0" from="9721205953" to="1512826466" priority="3" type="highway.residential" numLanes="1" speed="13.89" shape="2914.11,3272.10 2906.00,3278.20 2902.85,3281.41 2901.05,3284.13 2901.02,3287.31" disallow="tram rail_urban rail rail_electric rail_fast ship" />
    <edge id="-137971468#1" from="1512826524" to="9721205953" priority="3" type="highway.residential" numLanes="1" speed="13.89" shape="2932.71,3258.33 2928.79,3261.07 2914.11,3272.10" disallow="tram rail_urban rail rail_electric rail_fast ship" />
    <edge id="-137971468#2" from="1512826249" to="1512826524" priority="3" type="highway.residential" numLanes="1" speed="13.89" shape="2967.20,3234.89 2954.79,3243.72 2932.71,3258.33" disallow="tram rail_urban rail rail_electric rail_fast ship" />
    <edge id="-137971470#0" from="9697502173" to="1512826506" priority="3" type="highway.residential" numLanes="1" speed="13.89" shape="2845.31,3403.29 2822.12,3404.82 2816.94,3405.16" disallow="tram rail_urban rail rail_electric rail_fast ship" />
    <edge id="-137971470#1" from="9697502175" to="9697502173" priority="3" type="highway.residential" numLanes="1" speed="13.89" disallow="tram rail_urban rail rail_electric rail_fast ship" />
    <edge id="-137971470#2" from="1512826182" to="9697502175" priority="3" type="highway.residential" numLanes="1" speed="13.89" disallow="tram rail_urban rail rail_electric rail_fast ship" />
    <edge id="-137971470#3" from="8022077071" to="1512826182" priority="3" type="highway.residential" numLanes="1" speed="13.89" disallow="tram rail_urban rail rail_electric rail_fast ship" />
    <edge id="-137971470#4" from="9721205949" to="8022077071" priority="3" type="highway.residential" numLanes="1" speed="13.89" disallow="tram rail_urban rail rail_electric rail_fast ship" />
    <edge id="-137971470#5" from="1512826297" to="9721205949" priority="3" type="highway.residential" numLanes="1" speed="13.89" shape="3099.56,3385.47 3088.54,3387.66 3042.23,3390.36 3008.79,3392.53" disallow="tram rail_urban rail rail_electric rail_fast ship" />
    <edge id="-137971472#0" from="3254684948" to="1512826468" priority="3" type="highway.residential" numLanes="1" speed="13.89" shape="3319.41,3634.93 3337.39,3661.01 3341.34,3666.55" disallow="tram rail_urban rail rail_electric rail_fast ship" />
    <edge id="-137971472#1" from="1512826356" to="3254684948" priority="3" type="highway.residential" numLanes="1" speed="13.89" disallow="tram rail_urban rail rail_electric rail_fast ship" />
    <edge id="-137971472#2" from="2130789597" to="1512826356" priority="3" type="highway.residential" numLanes="1" speed="13.89" shape="3224.57,3616.27 3234.56,3610.77 3277.84,3607.20 3292.74,3608.38 3300.64,3612.53 3307.29,3618.51" disallow="tram rail_urban rail rail_electric rail_fast ship" />
    <edge id="-137971472#3" from="1512826273" to="2130789597" priority="3" type="highway.residential" numLanes="1" speed="13.89" shape="3211.58,3550.06 3207.73,3552.99 3181.75,3603.67 3182.35,3611.60 3188.71,3621.89 3199.04,3627.23 3209.75,3625.44 3224.57,3616.27" disallow="tram rail_urban rail rail_electric rail_fast ship" />
    <edge id="-137971475#0" from="1512826484" to="1512826290" priority="3" type="highway.residential" numLanes="1" speed="13.89" shape="2768.23,3333.99 2801.81,3332.42 2812.13,3332.49" disallow="tram rail_urban rail rail_electric rail_fast ship" />
    <edge id="-137971475#1" from="1512826314" to="1512826484" priority="3" type="highway.residential" numLanes="1" speed="13.89" disallow="tram rail_urban rail rail_electric rail_fast ship" />
    <edge id="-137971479#0" from="1512826453" to="1512826194" priority="3" type="highway.residential" numLanes="1" speed="13.89" disallow="tram rail_urban rail rail_electric rail_fast ship" />
    <edge id="-137971479#1" from="9721205931" to="1512826453" priority="3" type="highway.residential" numLanes="1" speed="13.89" disallow="tram rail_urban rail rail_electric rail_fast ship" />
    <edge id="-137971479#2" from="9721205933" to="9721205931" priority="3" type="highway.residential" numLanes="1" speed="13.89" disallow="tram rail_urban rail rail_electric rail_fast ship" />
    <edge id="-137971480" from="1512826524" to="2135164677" priority="3" type="highway.residential" numLanes="1" speed="13.89" shape="2932.71,3258.33 2930.08,3254.13 2889.08,3198.03 2884.34,3195.85 2881.14,3194.47 2836.08,3197.07 2831.47,3203.11 2832.01,3217.24" disallow="tram rail_urban rail rail_electric rail_fast ship" />
    <edge id="-137971486" from="1512826266" to="3259251840" priority="3" type="highway.residential" numLanes="1" speed="13.89" shape="3347.08,3662.67 3394.15,3738.98 3405.43,3745.30 3423.24,3748.76 3459.17,3738.15" disallow="tram rail_urban rail rail_electric rail_fast ship" />
    <edge id="-137971488#0" from="1512826451" to="1512711369" priority="3" type="highway.residential" numLanes="1" speed="13.89" shape="2753.62,3826.87 2802.88,3833.80 2815.80,3836.71" disallow="tram rail_urban rail rail_electric rail_fast ship" />
    <edge id="-137971488#1" from="1512711301" to="1512826451" priority="3" type="highway.residential" numLanes="1" speed="13.89" disallow="tram rail_urban rail rail_electric rail_fast ship" />
    <edge id="-137971488#2" from="9721176878" to="1512711301" priority="3" type="highway.residential" numLanes="1" speed="13.89" disallow="tram rail_urban rail rail_electric rail_fast ship" />
    <edge id="-137971488#3" from="1512711396" to="9721176878" priority="3" type="highway.residential" numLanes="1" speed="13.89" disallow="tram rail_urban rail rail_electric rail_fast ship" />
    <edge id="-137971488#4" from="9721176879" to="1512711396" priority="3" type="highway.residential" numLanes="1" speed="13.89" disallow="tram rail_urban rail rail_electric rail_fast ship" />
    <edge id="-137971489" from="1512826508" to="1512826312" priority="3" type="highway.residential" numLanes="1" speed="13.89" shape="1922.98,3563.69 1928.54,3565.36 2084.26,3613.83 2095.57,3612.64 2104.27,3605.52 2132.10,3519.49 2131.43,3512.26" disallow="tram rail_urban rail rail_electric rail_fast ship" />
    <edge id="-137971491#0" from="1512826205" to="7653281207" priority="10" type="highway.tertiary" numLanes="1" speed="22.22" disallow="tram rail_urban rail rail_electric rail_fast ship" />
    <edge id="-137971491#1" from="1512826350" to="1512826205" priority="10" type="highway.tertiary" numLanes="1" speed="22.22" shape="3653.38,4031.63 3631.21,4013.40 3612.74,4003.12" disallow="tram rail_urban rail rail_electric rail_fast ship" />
    <edge id="-137971492" from="11527789803" to="1512826375" priority="3" type="highway.residential" numLanes="1" speed="13.89" shape="2904.46,3109.43 2917.44,3116.27 2927.38,3123.07 2918.19,3141.57 2913.25,3155.04 2911.13,3160.08" disallow="tram rail_urban rail rail_electric rail_fast ship" />
    <edge id="-137971493#0" from="10286033817" to="1512711334" priority="3" type="highway.residential" numLanes="1" speed="13.89" shape="2534.43,3582.29 2534.20,3578.66 2532.35,3549.65 2531.81,3541.18" disallow="tram rail_urban rail rail_electric rail_fast ship" />
    <edge id="-137971493#1" from="2130656840" to="10286033817" priority="3" type="highway.residential" numLanes="1" speed="13.89" disallow="tram rail_urban rail rail_electric rail_fast ship" />
    <edge id="-137971493#2" from="3730764173" to="2130656840" priority="3" type="highway.residential" numLanes="1" speed="13.89" shape="2539.97,3672.45 2539.66,3669.28 2539.01,3662.41 2536.57,3616.13" disallow="tram rail_urban rail rail_electric rail_fast ship" />
    <edge id="-137971493#3" from="9721176880" to="3730764173" priority="3" type="highway.residential" numLanes="1" speed="13.89" shape="2537.34,3738.47 2539.94,3678.96 2539.97,3672.45" disallow="tram rail_urban rail rail_electric rail_fast ship" />
    <edge id="-137971493#4" from="2130656805" to="9721176880" priority="3" type="highway.residential" numLanes="1" speed="13.89" disallow="tram rail_urban rail rail_electric rail_fast ship" />
    <edge id="-137971493#5" from="1512826191" to="2130656805" priority="3" type="highway.residential" numLanes="1" speed="13.89" shape="2537.73,3780.49 2536.89,3748.65 2537.12,3742.19" disallow="tram rail_urban rail rail_electric rail_fast ship" />
    <edge id="-137971495#0" from="3257591560" to="2130789483" priority="10" type="highway.tertiary" numLanes="1" speed="22.22" shape="3523.26,3750.78 3533.25,3674.60 3535.33,3653.34" disallow="tram rail_urban rail rail_electric rail_fast ship" />
    <edge id="-137971495#1" from="1512711468" to="3257591560" priority="10" type="highway.tertiary" numLanes="1" speed="22.22" shape="3527.37,3906.11 3519.46,3851.37 3517.26,3818.51 3517.84,3792.19 3523.26,3750.78" disallow="tram rail_urban rail rail_electric rail_fast ship" />
    <edge id="-137971495#2" from="10286033948" to="1512711468" priority="10" type="highway.tertiary" numLanes="1" speed="22.22" shape="3529.25,3927.55 3528.85,3922.46 3527.37,3906.11" disallow="tram rail_urban rail rail_electric rail_fast ship" />