<?xml version="1.0" encoding="UTF-8"?>

<!-- generated on 2025-04-08 22:40:25 by Eclipse SUMO netconvert Version 1.19.0
<configuration xmlns:xsi="http://www.w3.org/2001/XMLSchema-instance" xsi:noNamespaceSchemaLocation="http://sumo.dlr.de/xsd/netconvertConfiguration.xsd">

    <input>
        <sumo-net-file value="souppes_sur_loing/souppes_sur_loing.net.xml"/>
    </input>

    <output>
        <plain-output-prefix value="souppes_sur_loing/souppes_sur_loing"/>
    </output>

    <processing>
        <geometry.min-radius.fix.railways value="false"/>
        <geometry.max-grade.fix value="false"/>
        <offset.disable-normalization value="true"/>
        <lefthand value="0"/>
    </processing>

    <tls_building>
        <tls.ignore-internal-junction-jam value="1"/>
    </tls_building>

    <junctions>
        <no-turnarounds value="true"/>
        <junctions.corner-detail value="5"/>
        <junctions.limit-turn-speed value="5.50"/>
        <rectangular-lane-cut value="0"/>
    </junctions>

    <pedestrian>
        <walkingareas value="0"/>
    </pedestrian>

</configuration>
-->

<nodes version="1.16" xmlns:xsi="http://www.w3.org/2001/XMLSchema-instance" xsi:noNamespaceSchemaLocation="http://sumo.dlr.de/xsd/nodes_file.xsd">
    <location netOffset="-476165.53,-5333265.02" convBoundary="0.00,0.00,9554.50,9484.10" origBoundary="2.679349,48.068781,2.812794,48.269237" projParameter="+proj=utm +zone=31 +ellps=WGS84 +datum=WGS84 +units=m +no_defs"/>

    <node id="10089080215" x="6383.01" y="4844.35" type="priority"/>
    <node id="10089084733" x="6496.74" y="4083.78" type="priority"/>
    <node id="10089084734" x="6163.03" y="4017.75" type="priority"/>
    <node id="10089084741" x="6461.37" y="4125.84" type="right_before_left"/>
    <node id="10089084747" x="6475.22" y="3810.93" type="right_before_left"/>
    <node id="10089084866" x="3401.67" y="2137.02" type="right_before_left"/>
    <node id="10287742934" x="5975.57" y="3040.12" type="priority"/>
    <node id="10287742935" x="5925.65" y="3037.69" type="priority"/>
    <node id="10743675746" x="2739.11" y="5059.80" type="priority"/>
    <node id="10758538503" x="5973.57" y="3049.19" type="priority"/>
    <node id="10777428886" x="2792.43" y="5060.45" type="priority"/>
    <node id="10866930202" x="6835.84" y="3232.83" type="priority"/>
    <node id="10866945105" x="6846.90" y="3227.70" type="priority"/>
    <node id="10866945106" x="6846.07" y="3220.82" type="priority"/>
    <node id="10866945108" x="6840.82" y="3217.02" type="priority"/>
    <node id="11417567586" x="2514.94" y="5705.36" type="priority"/>
    <node id="11417567660" x="2681.52" y="5220.82" type="priority"/>
    <node id="11417567662" x="2677.67" y="5214.90" type="priority"/>
    <node id="12277424583" x="2868.98" y="4547.29" type="priority"/>
    <node id="12277424584" x="2871.97" y="4549.13" type="priority"/>
    <node id="123023" x="6653.48" y="7579.48" type="dead_end"/>
    <node id="1365950387" x="1590.81" y="5106.04" type="dead_end"/>
    <node id="1365950513" x="1182.22" y="5988.50" type="priority"/>
    <node id="1365950883" x="1478.03" y="5110.41" type="priority"/>
    <node id="1407328580" x="6309.50" y="2275.65" type="priority"/>
    <node id="1407328597" x="6386.59" y="2353.33" type="priority"/>
    <node id="1407328599" x="6394.14" y="2608.46" type="priority"/>
    <node id="1407328657" x="4590.06" y="3081.89" type="priority"/>
    <node id="1407328660" x="5147.38" y="3119.35" type="priority"/>
    <node id="1407328680" x="5309.50" y="3122.08" type="priority"/>
    <node id="1407328692" x="5565.13" y="3151.50" type="priority"/>
    <node id="1407328694" x="5778.10" y="3181.00" type="priority"/>
    <node id="1407328710" x="5833.61" y="3192.77" type="priority"/>
    <node id="1407328727" x="6402.32" y="3267.21" type="priority"/>
    <node id="1407328768" x="4164.34" y="3498.62" type="priority"/>
    <node id="1407328781" x="4183.60" y="3505.39" type="priority"/>
    <node id="147019571#0-AddedOnRampNode" x="6520.88" y="2853.17" type="priority"/>
    <node id="1575632247" x="3529.10" y="2614.15" type="priority"/>
    <node id="1575632251" x="3529.64" y="2626.55" type="priority"/>
    <node id="1575632281" x="3445.53" y="2816.12" type="priority"/>
    <node id="1575632282" x="3432.18" y="2845.43" type="priority"/>
    <node id="1575632283" x="3416.52" y="2877.94" type="priority"/>
    <node id="1575632284" x="3408.89" y="2889.75" type="priority"/>
    <node id="1575632314" x="3301.16" y="3019.84" type="dead_end" fringe="inner">
        <param key="buffer_stop" value="true"/>
    </node>
    <node id="1575632316" x="3314.40" y="3033.84" type="dead_end" fringe="inner">
        <param key="buffer_stop" value="true"/>
    </node>
    <node id="1575632347" x="3381.43" y="3142.33" type="priority"/>
    <node id="1575632362" x="3078.53" y="3318.07" type="dead_end"/>
    <node id="1776915524" x="6865.60" y="3224.60" type="priority"/>
    <node id="1776915526" x="5420.87" y="3786.92" type="priority"/>
    <node id="1776915550" x="7152.96" y="3038.49" type="priority"/>
    <node id="1776915558" x="6708.96" y="3252.90" type="priority"/>
    <node id="1776915618" x="8643.24" y="3005.62" type="priority"/>
    <node id="1776915646" x="5034.37" y="3656.66" type="priority"/>
    <node id="1776915652" x="5660.08" y="4158.47" type="priority"/>
    <node id="1776915654" x="5932.30" y="4081.23" type="priority"/>
    <node id="1776915666" x="6814.96" y="3226.74" type="priority"/>
    <node id="1776915713" x="7194.59" y="3024.25" type="priority"/>
    <node id="1777134525" x="9554.50" y="4889.03" type="priority"/>
    <node id="1777134893" x="7078.19" y="5251.64" type="priority"/>
    <node id="1777135684" x="7392.75" y="5514.57" type="priority"/>
    <node id="1777135766" x="5738.96" y="4191.77" type="priority"/>
    <node id="1777135940" x="5794.78" y="4307.59" type="priority"/>
    <node id="1777136076" x="5966.51" y="4641.65" type="priority"/>
    <node id="1794535914" x="4032.22" y="2889.00" type="priority"/>
    <node id="1794535924" x="4230.11" y="3103.51" type="rail_crossing"/>
    <node id="1794535936" x="3184.90" y="3144.66" type="priority"/>
    <node id="1794535945" x="4188.72" y="3203.64" type="priority"/>
    <node id="1794535947" x="4054.24" y="3345.29" type="priority"/>
    <node id="1794535952" x="3134.37" y="3221.58" type="dead_end" fringe="inner">
        <param key="buffer_stop" value="true"/>
    </node>
    <node id="1794535961" x="3525.41" y="2554.87" type="priority"/>
    <node id="1794535968" x="4025.89" y="2904.13" type="rail_crossing"/>
    <node id="1794535973" x="3562.13" y="2461.23" type="dead_end" fringe="inner">
        <param key="buffer_stop" value="true"/>
    </node>
    <node id="1794537497" x="4204.13" y="3188.78" type="priority"/>
    <node id="1794537500" x="4220.42" y="3172.03" type="priority"/>
    <node id="1794680395" x="4178.11" y="2956.03" type="priority"/>
    <node id="1794680397" x="4160.49" y="3214.23" type="priority"/>
    <node id="1794680416" x="5354.80" y="2892.52" type="right_before_left"/>
    <node id="1794680423" x="4045.12" y="2858.91" type="priority"/>
    <node id="1794680424" x="5158.59" y="2799.10" type="priority"/>
    <node id="1794680428" x="5254.71" y="2646.34" type="priority"/>
    <node id="1794680452" x="5236.79" y="2717.23" type="priority"/>
    <node id="1794680466" x="5319.21" y="2860.04" type="priority"/>
    <node id="1794680468" x="4406.40" y="2085.31" type="priority"/>
    <node id="1794680469" x="4205.25" y="3147.78" type="priority"/>
    <node id="1794680475" x="5581.54" y="3815.04" type="priority"/>
    <node id="1794680477" x="5355.31" y="2728.24" type="priority"/>
    <node id="1794680482" x="4106.82" y="3012.19" type="priority"/>
    <node id="1794680484" x="4084.54" y="2910.89" type="priority"/>
    <node id="1794680492" x="5712.13" y="3522.97" type="priority"/>
    <node id="1794680493" x="5045.36" y="2653.43" type="priority"/>
    <node id="1794680501" x="4337.84" y="2164.69" type="priority"/>
    <node id="1794680503" x="5073.80" y="2450.30" type="priority"/>
    <node id="1794680508" x="5871.37" y="3951.55" type="priority"/>
    <node id="1794680512" x="5213.01" y="2854.90" type="priority"/>
    <node id="1794680515" x="6036.04" y="4021.24" type="priority"/>
    <node id="1794680516" x="4947.77" y="2611.84" type="priority"/>
    <node id="1794680530" x="4983.10" y="2469.10" type="priority"/>
    <node id="1794680537" x="5289.14" y="2937.64" type="priority"/>
    <node id="1794680540" x="5624.48" y="3673.86" type="priority"/>
    <node id="1794680541" x="5032.57" y="2565.10" type="priority"/>
    <node id="1794680542" x="5829.33" y="3897.43" type="right_before_left"/>
    <node id="1794680543" x="6005.43" y="4025.03" type="priority"/>
    <node id="1794680554" x="5259.41" y="2621.67" type="priority"/>
    <node id="1794680564" x="4445.31" y="2109.04" type="priority"/>
    <node id="1794680577" x="5027.33" y="2504.36" type="priority"/>
    <node id="1794680597" x="5452.64" y="2819.89" type="right_before_left"/>
    <node id="1794680601" x="5753.40" y="4007.78" type="priority"/>
    <node id="1794680603" x="5026.23" y="2623.75" type="priority"/>
    <node id="1794680616" x="6248.06" y="3254.14" type="priority"/>
    <node id="1794680634" x="4069.29" y="3295.52" type="priority"/>
    <node id="1794680635" x="4606.71" y="3253.80" type="right_before_left"/>
    <node id="1794680659" x="5745.06" y="3959.62" type="priority"/>
    <node id="1794680682" x="5675.59" y="3948.79" type="priority"/>
    <node id="1794680688" x="4856.03" y="3155.06" type="priority"/>
    <node id="1794680713" x="5674.34" y="3929.92" type="priority"/>
    <node id="1794680718" x="5081.01" y="2630.92" type="priority"/>
    <node id="1794680719" x="4060.73" y="3284.09" type="priority"/>
    <node id="1794680721" x="6084.16" y="3657.51" type="right_before_left"/>
    <node id="1794680724" x="5218.65" y="2595.36" type="priority" fringe="inner">
        <param key="buffer_stop" value="true"/>
    </node>
    <node id="1794680725" x="5427.90" y="2770.93" type="priority"/>
    <node id="1794680727" x="5196.42" y="2566.41" type="priority"/>
    <node id="1794680733" x="5319.81" y="2682.00" type="priority"/>
    <node id="1794680735" x="5146.49" y="2603.74" type="priority"/>
    <node id="1794680740" x="5346.62" y="4379.96" type="priority"/>
    <node id="1794680743" x="5156.78" y="2701.13" type="priority"/>
    <node id="1794680747" x="5645.81" y="4175.27" type="priority"/>
    <node id="1794680749" x="4136.13" y="2888.64" type="priority"/>
    <node id="1794680751" x="4020.96" y="2915.96" type="priority"/>
    <node id="1794680763" x="5333.47" y="3693.48" type="priority"/>
    <node id="1794680764" x="5434.59" y="2784.69" type="right_before_left"/>
    <node id="1794680768" x="3873.99" y="3078.80" type="priority"/>
    <node id="1794680771" x="4118.29" y="2926.07" type="priority"/>
    <node id="1794680784" x="4040.25" y="2960.53" type="right_before_left"/>
    <node id="1794680789" x="5745.15" y="3997.62" type="priority"/>
    <node id="1794680791" x="5457.17" y="2828.67" type="priority"/>
    <node id="1794680792" x="5316.36" y="2684.34" type="priority"/>
    <node id="1794680793" x="5187.82" y="2774.33" type="priority"/>
    <node id="1794680795" x="5106.78" y="2752.97" type="priority"/>
    <node id="1794680798" x="4160.58" y="3218.47" type="priority"/>
    <node id="1794680803" x="5635.44" y="3368.10" type="dead_end"/>
    <node id="1794680813" x="5383.63" y="2742.33" type="priority"/>
    <node id="1794680814" x="6164.17" y="3676.94" type="right_before_left"/>
    <node id="1794680831" x="4198.21" y="3143.98" type="priority"/>
    <node id="1794680836" x="5519.17" y="3788.42" type="priority"/>
    <node id="1794680838" x="5660.13" y="3377.52" type="dead_end"/>
    <node id="1794680853" x="6007.90" y="4007.57" type="priority"/>
    <node id="1794680858" x="5221.90" y="2676.85" type="priority"/>
    <node id="1794680860" x="5355.27" y="2861.23" type="right_before_left"/>
    <node id="1794680863" x="3935.92" y="3132.47" type="priority"/>
    <node id="1841717987" x="6496.86" y="4074.14" type="priority"/>
    <node id="2072671122" x="4268.24" y="3221.55" type="priority"/>
    <node id="2072671125" x="4285.42" y="3233.19" type="priority"/>
    <node id="2072671129" x="4283.78" y="3236.14" type="priority"/>
    <node id="2072671133" x="4271.33" y="3264.70" type="priority"/>
    <node id="2078038598" x="6973.01" y="3933.51" type="priority"/>
    <node id="2078038607" x="7190.77" y="3707.08" type="priority"/>
    <node id="2078038612" x="6955.74" y="3509.00" type="priority"/>
    <node id="2078038617" x="7127.75" y="3972.01" type="priority"/>
    <node id="2078038634" x="7066.99" y="4150.91" type="priority"/>
    <node id="2078038647" x="6962.65" y="3906.97" type="priority"/>
    <node id="2078040977" x="6597.31" y="2849.30" type="priority"/>
    <node id="2078040981" x="6613.17" y="2555.82" type="priority"/>
    <node id="2078041005" x="6831.97" y="3207.64" type="priority"/>
    <node id="2113579056" x="5149.20" y="5879.88" type="priority"/>
    <node id="2132913413" x="4520.14" y="706.49" type="priority"/>
    <node id="2138694705" x="2777.64" y="4729.62" type="priority"/>
    <node id="2139890309" x="3479.29" y="3293.30" type="priority"/>
    <node id="2139890388" x="3675.19" y="3534.99" type="priority"/>
    <node id="2139975852" x="4378.47" y="1169.51" type="right_before_left"/>
    <node id="2139975864" x="4380.20" y="1173.23" type="priority"/>
    <node id="2139975877" x="4258.35" y="1303.70" type="priority"/>
    <node id="2139975890" x="4221.27" y="1392.98" type="right_before_left"/>
    <node id="2139975893" x="4205.36" y="1407.72" type="priority"/>
    <node id="2139975896" x="4206.08" y="1428.81" type="dead_end"/>
    <node id="2139975923" x="4167.17" y="1515.34" type="priority"/>
    <node id="2139975944" x="4115.05" y="1726.43" type="priority"/>
    <node id="2139976002" x="4177.38" y="2099.89" type="priority"/>
    <node id="2140027962" x="4619.58" y="425.52" type="priority"/>
    <node id="2140527690" x="3438.43" y="2810.23" type="priority"/>
    <node id="2140527709" x="3444.89" y="2933.17" type="priority"/>
    <node id="2140527718" x="3270.12" y="2959.80" type="priority"/>
    <node id="2140527727" x="3289.75" y="3014.83" type="priority"/>
    <node id="2140527732" x="3244.51" y="3071.26" type="priority"/>
    <node id="2140527737" x="3348.03" y="3108.84" type="priority"/>
    <node id="2140527747" x="3383.67" y="3146.13" type="priority"/>
    <node id="2140527749" x="3223.53" y="3148.74" type="priority"/>
    <node id="2140527754" x="3251.56" y="3181.15" type="right_before_left"/>
    <node id="2140527781" x="3468.65" y="3276.75" type="priority"/>
    <node id="2140527785" x="3459.10" y="3284.12" type="right_before_left"/>
    <node id="2140527796" x="3420.05" y="3319.51" type="right_before_left"/>
    <node id="2140527807" x="3389.57" y="3334.71" type="right_before_left"/>
    <node id="2140527823" x="3366.73" y="3391.68" type="right_before_left"/>
    <node id="2140527827" x="3336.43" y="3410.04" type="right_before_left"/>
    <node id="2140527980" x="3283.75" y="3477.31" type="priority"/>
    <node id="2140528347" x="2857.15" y="3639.85" type="right_before_left"/>
    <node id="2140528479" x="2845.46" y="3670.30" type="priority"/>
    <node id="2140528606" x="3408.79" y="3711.23" type="priority"/>
    <node id="2140528611" x="2819.35" y="3727.61" type="right_before_left"/>
    <node id="2140528868" x="3011.03" y="3839.78" type="right_before_left"/>
    <node id="2140528888" x="2985.45" y="3860.21" type="priority"/>
    <node id="2140529273" x="2760.15" y="4752.38" type="right_before_left"/>
    <node id="2140529290" x="2747.16" y="4801.36" type="priority"/>
    <node id="2140529310" x="2736.86" y="4907.68" type="priority"/>
    <node id="2140529665" x="2680.13" y="5085.21" type="right_before_left"/>
    <node id="2140529679" x="2711.82" y="5087.43" type="priority"/>
    <node id="2140530247" x="2759.77" y="5191.69" type="priority"/>
    <node id="2140530296" x="2786.38" y="5216.91" type="right_before_left"/>
    <node id="2140530318" x="2751.71" y="5217.33" type="priority"/>
    <node id="2140530336" x="2712.93" y="5218.51" type="priority"/>
    <node id="2140530576" x="2568.74" y="5411.80" type="priority"/>
    <node id="2140530620" x="1742.65" y="5432.80" type="priority"/>
    <node id="2140530748" x="2341.29" y="5487.25" type="priority"/>
    <node id="2140530929" x="2705.29" y="5667.21" type="rail_signal"/>
    <node id="2140531115" x="1956.01" y="5696.91" type="priority"/>
    <node id="2140531150" x="1943.79" y="5701.11" type="priority"/>
    <node id="2140531236" x="1812.95" y="5751.35" type="priority"/>
    <node id="2140531239" x="1846.24" y="5753.41" type="priority"/>
    <node id="2140531240" x="1818.99" y="5755.08" type="priority"/>
    <node id="2140531243" x="1799.66" y="5757.09" type="priority"/>
    <node id="2140531251" x="1820.28" y="5769.44" type="priority"/>
    <node id="2140531255" x="1807.09" y="5774.32" type="priority"/>
    <node id="2140531267" x="2383.09" y="5954.72" type="priority"/>
    <node id="2140531346" x="2422.99" y="6321.49" type="priority"/>
    <node id="2140531350" x="2433.90" y="6348.23" type="rail_crossing"/>
    <node id="2140531353" x="2521.83" y="6394.83" type="priority"/>
    <node id="2141678542" x="3762.13" y="3605.69" type="priority"/>
    <node id="2141678562" x="3578.76" y="3656.92" type="priority"/>
    <node id="2141678614" x="3291.94" y="3962.77" type="priority"/>
    <node id="2141678734" x="2864.64" y="4583.08" type="right_before_left"/>
    <node id="2207849552" x="2124.75" y="7832.51" type="priority"/>
    <node id="2218998451" x="8765.30" y="3033.46" type="priority"/>
    <node id="2222874057" x="7072.08" y="744.44" type="priority"/>
    <node id="2222874104" x="6443.83" y="1057.89" type="priority"/>
    <node id="2222874159" x="6580.51" y="1170.64" type="priority"/>
    <node id="2222874193" x="5908.44" y="1242.18" type="priority"/>
    <node id="2222874244" x="6038.79" y="1362.04" type="priority"/>
    <node id="2222874268" x="7212.75" y="1438.64" type="right_before_left"/>
    <node id="2222874333" x="6225.27" y="1507.38" type="priority"/>
    <node id="2222874354" x="6221.72" y="1697.29" type="priority"/>
    <node id="2222874359" x="6173.79" y="1771.99" type="priority"/>
    <node id="2222874390" x="6205.11" y="1849.29" type="priority"/>
    <node id="2222874403" x="5350.54" y="1911.82" type="priority"/>
    <node id="2222874410" x="6284.27" y="1909.62" type="priority"/>
    <node id="2222874545" x="6343.33" y="2227.60" type="priority"/>
    <node id="2222874560" x="6332.20" y="2247.47" type="priority"/>
    <node id="2222874566" x="5216.14" y="2760.99" type="priority"/>
    <node id="2222874581" x="5249.74" y="2803.29" type="priority"/>
    <node id="2222874583" x="4751.28" y="2936.63" type="priority"/>
    <node id="2222874589" x="4701.12" y="3048.35" type="priority"/>
    <node id="2222874675" x="6362.84" y="4835.03" type="priority"/>
    <node id="2222874709" x="6718.16" y="5062.84" type="priority"/>
    <node id="2222874711" x="6735.03" y="5077.38" type="priority"/>
    <node id="2222874736" x="6926.24" y="5144.51" type="priority"/>
    <node id="2222874798" x="7514.12" y="5831.29" type="priority"/>
    <node id="2222874800" x="7254.63" y="5836.69" type="right_before_left"/>
    <node id="2222874855" x="7089.65" y="6061.14" type="right_before_left"/>
    <node id="2222874876" x="7109.36" y="6131.57" type="priority"/>
    <node id="2222874881" x="5085.57" y="6154.78" type="priority"/>
    <node id="2223033671" x="3662.47" y="3888.71" type="priority"/>
    <node id="2223033672" x="4417.72" y="3902.21" type="priority"/>
    <node id="2223033679" x="3754.86" y="3956.76" type="priority"/>
    <node id="2223033681" x="4378.69" y="3979.11" type="priority"/>
    <node id="2223033683" x="4508.91" y="4001.17" type="priority"/>
    <node id="2223033684" x="4541.20" y="4046.10" type="priority"/>
    <node id="2223033705" x="4179.81" y="4262.28" type="priority"/>
    <node id="2223033709" x="4178.46" y="4301.37" type="priority"/>
    <node id="2223033742" x="5080.52" y="4872.89" type="priority"/>
    <node id="2223033761" x="4456.84" y="5171.70" type="priority"/>
    <node id="2223033765" x="4785.21" y="5222.33" type="priority"/>
    <node id="2223033780" x="4478.86" y="5444.17" type="priority"/>
    <node id="2223033782" x="4439.28" y="5547.13" type="priority"/>
    <node id="2223033794" x="4256.79" y="5749.97" type="priority"/>
    <node id="2223033804" x="4117.91" y="5916.49" type="priority"/>
    <node id="2223033805" x="4111.52" y="5928.44" type="priority"/>
    <node id="2225814511" x="4449.26" y="3581.36" type="priority"/>
    <node id="2225814515" x="4039.66" y="3629.31" type="priority"/>
    <node id="2225814516" x="4523.77" y="3641.10" type="priority"/>
    <node id="2225814518" x="4468.64" y="3654.84" type="priority"/>
    <node id="2225814523" x="4490.72" y="3690.56" type="priority"/>
    <node id="2225814526" x="4541.79" y="3697.10" type="priority"/>
    <node id="2225814531" x="4278.56" y="3732.84" type="priority"/>
    <node id="2225814533" x="4055.11" y="3734.22" type="priority"/>
    <node id="2225814536" x="4201.18" y="3735.02" type="priority"/>
    <node id="2225814538" x="4092.58" y="3742.42" type="priority"/>
    <node id="2225814539" x="4644.66" y="3742.55" type="priority"/>
    <node id="2225814548" x="4056.79" y="3779.29" type="priority"/>
    <node id="2225814558" x="4601.86" y="3808.87" type="priority"/>
    <node id="2225814560" x="4629.44" y="3814.30" type="priority"/>
    <node id="2225814562" x="4183.87" y="3822.50" type="priority"/>
    <node id="2225814564" x="4595.74" y="3830.88" type="priority"/>
    <node id="2225814574" x="4618.43" y="3870.29" type="priority"/>
    <node id="2225814578" x="4596.55" y="3915.27" type="priority"/>
    <node id="2225814580" x="4561.77" y="3919.89" type="priority"/>
    <node id="2225814582" x="4118.23" y="3924.00" type="priority"/>
    <node id="2225814586" x="4308.90" y="3929.23" type="priority"/>
    <node id="2225814588" x="4155.15" y="3931.38" type="priority"/>
    <node id="2225814605" x="4216.90" y="3947.72" type="right_before_left"/>
    <node id="2225814606" x="4326.79" y="3947.93" type="priority"/>
    <node id="2225814614" x="4194.95" y="3955.94" type="priority"/>
    <node id="2225814615" x="4263.07" y="3956.33" type="priority"/>
    <node id="2225814616" x="4216.45" y="3957.40" type="priority"/>
    <node id="2225814619" x="4226.08" y="3958.50" type="priority"/>
    <node id="2225814620" x="3943.75" y="3959.67" type="priority"/>
    <node id="2225814621" x="4248.59" y="3958.79" type="priority"/>
    <node id="2225814627" x="4572.57" y="3971.25" type="priority"/>
    <node id="2225814628" x="4362.98" y="3968.28" type="priority"/>
    <node id="2225814629" x="4538.93" y="3970.72" type="priority"/>
    <node id="2225814631" x="4382.87" y="3975.00" type="priority"/>
    <node id="2225814632" x="4225.78" y="3979.52" type="priority"/>
    <node id="2225814636" x="4161.75" y="3985.95" type="priority"/>
    <node id="2225814639" x="4119.85" y="4018.01" type="priority"/>
    <node id="2225814646" x="4107.25" y="4056.69" type="priority"/>
    <node id="2225814655" x="4209.15" y="4081.46" type="priority"/>
    <node id="2225814657" x="4285.97" y="4086.64" type="right_before_left"/>
    <node id="2225814663" x="4302.65" y="4097.68" type="priority"/>
    <node id="2225814665" x="4256.93" y="4105.93" type="priority"/>
    <node id="2225814670" x="4267.79" y="4115.19" type="priority"/>
    <node id="2225814674" x="4282.88" y="4126.94" type="priority"/>
    <node id="2225814677" x="4267.49" y="4151.37" type="priority"/>
    <node id="2225814680" x="4180.80" y="4224.72" type="priority"/>
    <node id="2225814681" x="4203.66" y="4232.41" type="priority"/>
    <node id="2225814682" x="4336.10" y="4274.84" type="priority"/>
    <node id="2225814690" x="4674.85" y="4755.58" type="priority"/>
    <node id="2225814706" x="4776.00" y="5022.21" type="right_before_left"/>
    <node id="2229217788" x="3674.01" y="3654.72" type="priority"/>
    <node id="2229217799" x="3743.45" y="3733.64" type="priority"/>
    <node id="2229217800" x="3548.48" y="3784.53" type="priority"/>
    <node id="2229217803" x="3874.27" y="3802.90" type="priority"/>
    <node id="2229217814" x="3617.22" y="4045.70" type="priority"/>
    <node id="2229217818" x="3598.67" y="4159.00" type="priority"/>
    <node id="2229217822" x="3524.07" y="4986.50" type="priority"/>
    <node id="2229217827" x="4812.14" y="5003.76" type="priority"/>
    <node id="2229217836" x="3239.27" y="5023.28" type="priority"/>
    <node id="2229217852" x="3147.23" y="5036.85" type="priority"/>
    <node id="2229217864" x="3438.08" y="5070.95" type="priority"/>
    <node id="2229217867" x="3262.23" y="5077.04" type="right_before_left"/>
    <node id="2229217928" x="4679.73" y="5198.44" type="right_before_left"/>
    <node id="2229217939" x="4455.48" y="5227.11" type="priority"/>
    <node id="2229217942" x="4860.33" y="5410.52" type="priority"/>
    <node id="2229217943" x="4910.00" y="5504.86" type="priority"/>
    <node id="2229217945" x="4965.20" y="5602.58" type="priority"/>
    <node id="2229217950" x="5004.93" y="5685.64" type="priority"/>
    <node id="2229217960" x="4917.11" y="5754.89" type="right_before_left"/>
    <node id="2229217962" x="5627.16" y="6007.20" type="priority"/>
    <node id="2232166346" x="4196.67" y="5380.83" type="priority"/>
    <node id="2232166349" x="4064.82" y="5383.18" type="priority"/>
    <node id="2232166360" x="4415.27" y="5397.82" type="priority"/>
    <node id="2232166362" x="4189.09" y="5400.98" type="right_before_left"/>
    <node id="2232166372" x="4476.93" y="5409.21" type="priority"/>
    <node id="2232166385" x="4269.33" y="5435.85" type="priority"/>
    <node id="2232166400" x="4167.82" y="5457.45" type="right_before_left"/>
    <node id="2232166412" x="4214.77" y="5489.92" type="priority"/>
    <node id="2232166419" x="4251.88" y="5515.15" type="priority"/>
    <node id="2232166421" x="4449.57" y="5519.63" type="priority"/>
    <node id="2232166440" x="4676.46" y="6135.14" type="priority"/>
    <node id="2232166458" x="6315.86" y="6561.45" type="priority"/>
    <node id="2232166476" x="4718.34" y="7558.51" type="priority"/>
    <node id="240061726" x="3229.86" y="4781.16" type="priority"/>
    <node id="240061730" x="3385.39" y="4441.88" type="priority"/>
    <node id="2411779784" x="6761.50" y="1830.86" type="right_before_left"/>
    <node id="2411779793" x="6676.57" y="1507.22" type="right_before_left"/>
    <node id="2411779860" x="6597.27" y="1850.82" type="right_before_left"/>
    <node id="2411779865" x="6583.72" y="1736.35" type="right_before_left"/>
    <node id="2411779875" x="6735.49" y="1683.60" type="right_before_left"/>
    <node id="2411779876" x="6550.66" y="1408.95" type="right_before_left"/>
    <node id="2411779879" x="6669.01" y="1514.80" type="right_before_left"/>
    <node id="2411779908" x="6574.95" y="1854.86" type="priority"/>
    <node id="2411779959" x="6661.99" y="1499.90" type="right_before_left"/>
    <node id="2411780041" x="7182.08" y="937.00" type="right_before_left"/>
    <node id="2411780045" x="6576.02" y="1681.48" type="right_before_left"/>
    <node id="2411824566" x="7235.24" y="2810.41" type="right_before_left"/>
    <node id="2411824580" x="7264.56" y="2736.59" type="right_before_left"/>
    <node id="2411824594" x="6743.91" y="2871.49" type="priority"/>
    <node id="2411824599" x="6933.27" y="5138.95" type="right_before_left"/>
    <node id="2411824624" x="6805.42" y="3240.26" type="priority"/>
    <node id="2411824625" x="6736.06" y="2914.45" type="priority"/>
    <node id="2411824628" x="7155.71" y="2728.73" type="right_before_left"/>
    <node id="2411824635" x="6928.41" y="5146.11" type="priority"/>
    <node id="2411824727" x="6803.57" y="4157.03" type="priority"/>
    <node id="2411824769" x="6606.14" y="4196.93" type="right_before_left"/>
    <node id="2411824789" x="6927.30" y="2913.47" type="right_before_left"/>
    <node id="2411824799" x="7146.37" y="5292.13" type="right_before_left"/>
    <node id="2411824829" x="7104.13" y="3078.91" type="priority"/>
    <node id="2411824864" x="7538.51" y="2875.14" type="right_before_left"/>
    <node id="2411824890" x="6676.14" y="2979.00" type="priority"/>
    <node id="2411824921" x="7486.31" y="3017.27" type="priority"/>
    <node id="2411824926" x="6601.56" y="4132.75" type="right_before_left"/>
    <node id="2411824952" x="6954.86" y="6165.55" type="priority"/>
    <node id="2411824956" x="6720.51" y="4137.72" type="priority"/>
    <node id="2411824964" x="6688.97" y="5057.21" type="right_before_left"/>
    <node id="2411824968" x="7399.29" y="5522.21" type="priority"/>
    <node id="2411825005" x="7146.85" y="5302.63" type="priority"/>
    <node id="2411825014" x="6554.51" y="4132.50" type="priority"/>
    <node id="2411825027" x="6769.59" y="5083.21" type="right_before_left"/>
    <node id="2414242934" x="6973.94" y="1188.38" type="priority"/>
    <node id="242800005" x="6561.17" y="2212.52" type="priority"/>
    <node id="242800049" x="6365.92" y="2265.89" type="priority"/>
    <node id="242800054" x="6350.26" y="2268.65" type="priority"/>
    <node id="242800066" x="6337.06" y="2260.70" type="priority"/>
    <node id="242800091" x="6376.53" y="2243.67" type="priority"/>
    <node id="242800100" x="6521.99" y="2225.38" type="priority"/>
    <node id="242800104" x="6598.03" y="2196.09" type="priority"/>
    <node id="242800112" x="6596.15" y="2076.70" type="priority"/>
    <node id="242800123" x="6549.23" y="1787.42" type="priority"/>
    <node id="242800145" x="6250.70" y="760.39" type="dead_end"/>