<edges xmlns:xsi="http://www.w3.org/2001/XMLSchema-instance" version="1.16" xsi:noNamespaceSchemaLocation="http://sumo.dlr.de/xsd/edges_file.xsd">
    <location netOffset="-478839.44,-5333302.76" convBoundary="0.00,0.00,6880.59,7898.66" origBoundary="2.697164,48.068781,2.812794,48.269237" projParameter="+proj=utm +zone=31 +ellps=WGS84 +datum=WGS84 +units=m +no_defs" />

    <edge id="-1000366825" from="9233990643" to="9233990647" priority="4" type="highway.unclassified" numLanes="1" speed="13.89" shape="1556.12,1113.50 1562.06,1091.56 1567.63,1065.48 1576.67,1029.08 1580.14,1015.90 1583.86,995.22 1583.29,987.29 1577.49,975.27 1571.68,962.71 1567.49,953.17" disallow="tram rail_urban rail rail_electric rail_fast ship" />
    <edge id="-1058136844#0" from="2724013939" to="2724013917" priority="4" type="highway.unclassified" numLanes="1" speed="13.89" shape="924.53,945.53 929.77,942.01 935.69,934.64 935.77,920.88 939.27,911.90 947.73,904.58 958.14,899.17 963.41,892.95 964.64,884.15 965.63,880.80" disallow="tram rail_urban rail rail_electric rail_fast ship" />
    <edge id="-1059337931" from="9733100158" to="9733100160" priority="3" type="highway.residential" numLanes="1" speed="13.89" shape="3206.10,4094.76 3186.47,4065.11 3152.07,4062.73" disallow="tram rail_urban rail rail_electric rail_fast ship" />
    <edge id="-1059337932" from="9733100161" to="9733100167" priority="3" type="highway.residential" numLanes="1" speed="13.89" shape="3072.01,4056.12 3077.61,4061.97 3096.96,4063.30 3100.25,4066.27 3102.67,4073.91 3102.11,4084.05 3121.12,4140.34" disallow="tram rail_urban rail rail_electric rail_fast ship" />
    <edge id="-1059337936" from="9733100174" to="1776915713" priority="3" type="highway.residential" numLanes="1" speed="13.89" shape="4563.76,2857.95 4522.73,2977.85 4520.68,2986.51" disallow="tram rail_urban rail rail_electric rail_fast ship" />
    <edge id="-1065595929#0" from="9786074895" to="3864796556" priority="3" type="highway.residential" numLanes="1" speed="13.89" disallow="tram rail_urban rail rail_electric rail_fast ship" />
    <edge id="-1065595929#1" from="5882877286" to="9786074895" priority="3" type="highway.residential" numLanes="1" speed="13.89" disallow="tram rail_urban rail rail_electric rail_fast ship" />
    <edge id="-1065595929#2" from="9786075778" to="5882877286" priority="3" type="highway.residential" numLanes="1" speed="13.89" disallow="tram rail_urban rail rail_electric rail_fast ship" />
    <edge id="-1065595929#3" from="2622975901" to="9786075778" priority="3" type="highway.residential" numLanes="1" speed="13.89" disallow="tram rail_urban rail rail_electric rail_fast ship" />
    <edge id="-1065595929#4" from="9786075749" to="2622975901" priority="3" type="highway.residential" numLanes="1" speed="13.89" disallow="tram rail_urban rail rail_electric rail_fast ship" />
    <edge id="-1065595930#0" from="9786074896" to="386027400" priority="3" type="highway.residential" numLanes="1" speed="13.89" shape="1478.53,3295.94 1474.61,3301.61 1466.82,3310.64 1443.84,3338.84 1418.13,3364.84" disallow="tram rail_urban rail rail_electric rail_fast ship" />
    <edge id="-1065595930#1" from="3864797460" to="9786074896" priority="3" type="highway.residential" numLanes="1" speed="13.89" disallow="tram rail_urban rail rail_electric rail_fast ship" />
    <edge id="-1065595933" from="1794680397" to="1794680798" priority="4" type="highway.unclassified" numLanes="1" speed="13.89" disallow="tram rail_urban rail rail_electric rail_fast ship" />
    <edge id="-1114866190" from="2222874354" to="2222874359" priority="3" type="highway.residential" numLanes="1" speed="13.89" shape="3547.80,1659.55 3510.10,1723.41 3499.88,1734.25" disallow="tram rail_urban rail rail_electric rail_fast ship" />
    <edge id="-1114866191#0" from="2222874390" to="2222874359" priority="4" type="highway.unclassified" numLanes="1" speed="13.89" shape="3531.19,1811.55 3526.73,1795.66 3499.88,1734.25" disallow="tram rail_urban rail rail_electric rail_fast ship" />
    <edge id="-1114866191#1" from="2222874545" to="2222874390" priority="4" type="highway.unclassified" numLanes="1" speed="13.89" shape="3669.42,2189.86 3657.14,2176.04 3650.51,2170.52 3640.98,2165.98 3626.40,2161.98 3617.73,2158.70 3610.56,2154.49 3603.08,2147.46 3595.39,2135.77 3572.26,2094.77 3567.53,2084.00 3562.86,2070.60 3559.45,2059.23 3557.35,2049.24 3555.77,2033.68 3554.32,1966.01 3553.01,1951.16 3545.32,1899.72 3539.35,1867.99 3533.30,1825.22 3531.19,1811.55" disallow="tram rail_urban rail rail_electric rail_fast ship" />
    <edge id="-1125009822" from="10287742935" to="5365465669" priority="4" type="highway.unclassified" numLanes="1" speed="13.89" shape="3251.74,2999.95 3253.90,3000.42 3268.60,3004.33 3273.97,3005.89" disallow="tram rail_urban rail rail_electric rail_fast ship" />
    <edge id="-1134813071#0" from="10089084734" to="1841717987" priority="10" type="highway.tertiary" numLanes="1" speed="13.89" shape="3489.12,3980.01 3537.77,3979.86 3599.98,3982.86 3644.66,3990.67 3695.72,4000.05 3822.94,4036.40" disallow="tram rail_urban rail rail_electric rail_fast ship">
        <param key="ref" value="D 120" />
    </edge>
    <edge id="-1134813071#1" from="2984127705" to="10089084734" priority="10" type="highway.tertiary" numLanes="1" speed="13.89" shape="3439.85,3980.52 3450.06,3980.13 3489.12,3980.01" disallow="tram rail_urban rail rail_electric rail_fast ship">
        <param key="ref" value="D 120" />
    </edge>
    <edge id="-1134813071#2" from="1794680515" to="2984127705" priority="10" type="highway.tertiary" numLanes="1" speed="13.89" disallow="tram rail_urban rail rail_electric rail_fast ship">
        <param key="ref" value="D 120" />
    </edge>
    <edge id="-1134813071#3" from="1794680543" to="1794680515" priority="10" type="highway.tertiary" numLanes="1" speed="13.89" shape="3331.52,3987.29 3338.43,3985.26 3359.17,3983.61 3362.13,3983.50" disallow="tram rail_urban rail rail_electric rail_fast ship">
        <param key="ref" value="D 120" />
    </edge>
    <edge id="-1134813071#4" from="1776915654" to="1794680543" priority="10" type="highway.tertiary" numLanes="1" speed="13.89" shape="3258.38,4043.49 3287.24,4012.44 3311.11,3993.29 3331.52,3987.29" disallow="tram rail_urban rail rail_electric rail_fast ship">
        <param key="ref" value="D 120" />
    </edge>
    <edge id="-1156904873#0" from="5365465672" to="5365465669" priority="4" type="highway.unclassified" numLanes="1" speed="13.89" disallow="tram rail_urban rail rail_electric rail_fast ship" />
    <edge id="-1156904873#1" from="5365465707" to="5365465672" priority="4" type="highway.unclassified" numLanes="1" speed="13.89" shape="3231.89,3118.62 3238.60,3112.83 3243.18,3109.44 3245.61,3106.70 3248.29,3102.76 3250.92,3095.63 3261.63,3053.59 3264.11,3043.85" disallow="tram rail_urban rail rail_electric rail_fast ship" />
    <edge id="-1156904874" from="5365465648" to="5365465707" priority="4" type="highway.unclassified" numLanes="1" speed="13.89" shape="3223.39,3134.57 3227.76,3124.45 3231.89,3118.62" disallow="tram rail_urban rail rail_electric rail_fast ship" />
    <edge id="-127089283#0" from="1407328599" to="1407328580" priority="10" type="highway.tertiary" numLanes="1" speed="22.22" shape="3720.23,2570.72 3636.74,2257.70 3634.94,2245.79 3635.59,2237.91" disallow="tram rail_urban rail rail_electric rail_fast ship">
        <param key="ref" value="D 377" />
    </edge>
    <edge id="-127089283#1" from="5365465630" to="1407328599" priority="10" type="highway.tertiary" numLanes="1" speed="22.22" disallow="tram rail_urban rail rail_electric rail_fast ship">
        <param key="ref" value="D 377" />
    </edge>
    <edge id="-127089283#2" from="1407328727" to="5365465630" priority="10" type="highway.tertiary" numLanes="1" speed="22.22" shape="3728.41,3229.47 3729.67,3224.17 3746.67,3156.02 3789.45,2992.30 3794.97,2959.67 3796.31,2935.47 3795.83,2894.97 3764.00,2754.87" disallow="tram rail_urban rail rail_electric rail_fast ship">
        <param key="ref" value="D 377" />
    </edge>
    <edge id="-127089287#0" from="1407328680" to="1407328692" priority="10" type="highway.tertiary" numLanes="1" speed="22.22" shape="2635.59,3084.34 2714.32,3092.11 2819.67,3104.81 2891.21,3113.76" disallow="tram rail_urban rail rail_electric rail_fast ship">
        <param key="ref" value="D 30" />
    </edge>
    <edge id="-127089287#1" from="1407328660" to="1407328680" priority="10" type="highway.tertiary" numLanes="1" speed="22.22" shape="2473.47,3081.61 2509.07,3079.24 2554.72,3078.10 2635.59,3084.34" disallow="tram rail_urban rail rail_electric rail_fast ship">
        <param key="ref" value="D 30" />
    </edge>
    <edge id="-127089287#2" from="1794680688" to="1407328660" priority="10" type="highway.tertiary" numLanes="1" speed="22.22" shape="2182.12,3117.32 2198.78,3116.73 2216.28,3113.24 2267.32,3099.95 2297.77,3093.61 2330.00,3089.52 2460.85,3082.31 2473.47,3081.61" disallow="tram rail_urban rail rail_electric rail_fast ship">
        <param key="ref" value="D 30" />
    </edge>
    <edge id="-127089287#3" from="2222874589" to="1794680688" priority="10" type="highway.tertiary" numLanes="1" speed="22.22" shape="2027.21,3010.61 2047.17,3018.07 2070.39,3032.84 2114.66,3074.56 2142.71,3100.49 2154.31,3108.79 2167.39,3114.42 2182.12,3117.32" disallow="tram rail_urban rail rail_electric rail_fast ship">
        <param key="ref" value="D 30" />
    </edge>
    <edge id="-127089287#4" from="1407328657" to="2222874589" priority="10" type="highway.tertiary" numLanes="1" speed="22.22" shape="1916.15,3044.15 1930.70,3032.75 1945.26,3023.74 1961.89,3015.51 1979.01,3009.48 1995.99,3007.60 2010.35,3007.60 2027.21,3010.61" disallow="tram rail_urban rail rail_electric rail_fast ship">
        <param key="ref" value="D 30" />
    </edge>
    <edge id="-127089287#5" from="8124130128" to="1407328657" priority="10" type="highway.tertiary" numLanes="1" speed="22.22" shape="1570.82,3427.78 1572.66,3422.96 1576.34,3413.63 1587.59,3380.55 1600.26,3350.45 1611.81,3330.36 1632.34,3305.66 1725.79,3219.11 1916.15,3044.15" disallow="tram rail_urban rail rail_electric rail_fast ship">
        <param key="ref" value="D 30" />
    </edge>
    <edge id="-127089287#6" from="1407328781" to="8124130128" priority="10" type="highway.tertiary" numLanes="1" speed="22.22" shape="1509.69,3467.65 1513.78,3466.68 1518.88,3465.51 1527.13,3463.22 1531.79,3461.93 1541.14,3458.27 1549.22,3453.79 1556.79,3448.28 1563.60,3441.95 1567.59,3436.24 1570.82,3427.78" disallow="tram rail_urban rail rail_electric rail_fast ship">
        <param key="ref" value="D 30" />
    </edge>
    <edge id="-127089287#7" from="1407328768" to="1407328781" priority="10" type="highway.tertiary" numLanes="1" speed="22.22" shape="1490.43,3460.88 1499.96,3464.56 1509.69,3467.65" disallow="tram rail_urban rail rail_electric rail_fast ship">
        <param key="ref" value="D 30" />
    </edge>
    <edge id="-143984303" from="2140527747" to="1575632347" priority="11" type="highway.secondary" numLanes="1" speed="19.44" disallow="tram rail_urban rail rail_electric rail_fast ship">
        <param key="ref" value="D 207a" />
    </edge>
    <edge id="-143984305" from="1575632347" to="2140527737" priority="11" type="highway.secondary" numLanes="1" speed="27.78" shape="707.52,3104.59 684.09,3077.46 674.12,3071.10" disallow="tram rail_urban rail rail_electric rail_fast ship">
        <param key="ref" value="D 207a" />
    </edge>
    <edge id="-166220361#0" from="1776915558" to="1776915666" priority="10" type="highway.tertiary" numLanes="1" speed="22.22" shape="4035.05,3215.16 4069.87,3203.84 4092.02,3198.29 4115.98,3193.29 4127.54,3191.52 4141.05,3189.00" disallow="tram rail_urban rail rail_electric rail_fast ship">
        <param key="ref" value="D 30" />
    </edge>
    <edge id="-166251889#0" from="1777135940" to="1777135766" priority="10" type="highway.tertiary" numLanes="1" speed="22.22" shape="3120.87,4269.85 3109.64,4246.84 3083.93,4188.09 3065.05,4154.03" disallow="tram rail_urban rail rail_electric rail_fast ship">
        <param key="ref" value="D 136" />
    </edge>
    <edge id="-166251889#1" from="2984127629" to="1777135940" priority="10" type="highway.tertiary" numLanes="1" speed="22.22" shape="3231.18,4422.53 3213.80,4397.47 3193.74,4368.20 3147.58,4305.38 3120.87,4269.85" disallow="tram rail_urban rail rail_electric rail_fast ship">
        <param key="ref" value="D 136" />
    </edge>
    <edge id="-166251889#2" from="2984127727" to="2984127629" priority="10" type="highway.tertiary" numLanes="1" speed="22.22" disallow="tram rail_urban rail rail_electric rail_fast ship">
        <param key="ref" value="D 136" />
    </edge>
    <edge id="-166251889#3" from="1777136076" to="2984127727" priority="10" type="highway.tertiary" numLanes="1" speed="22.22" shape="3292.59,4603.91 3279.75,4578.52 3272.25,4549.37 3249.42,4464.14 3234.65,4432.39 3233.12,4428.02" disallow="tram rail_urban rail rail_electric rail_fast ship">
        <param key="ref" value="D 136" />
    </edge>
    <edge id="-166251889#4" from="2222874675" to="1777136076" priority="10" type="highway.tertiary" numLanes="1" speed="22.22" shape="3688.93,4797.29 3673.72,4790.25 3571.54,4747.64 3433.18,4687.74 3359.71,4649.81 3292.59,4603.91" disallow="tram rail_urban rail rail_electric rail_fast ship">
        <param key="ref" value="D 136" />
    </edge>
    <edge id="-166251889#5" from="10089080215" to="2222874675" priority="10" type="highway.tertiary" numLanes="1" speed="22.22" disallow="tram rail_urban rail rail_electric rail_fast ship">
        <param key="ref" value="D 136" />
    </edge>
    <edge id="-168175012#0" from="423937955" to="1794680395" priority="4" type="highway.unclassified" numLanes="1" speed="13.89" shape="1559.25,2987.64 1555.25,2978.65 1550.45,2969.67 1541.96,2956.43 1535.35,2947.81 1525.25,2936.82 1516.69,2928.04 1513.92,2925.90 1508.67,2921.66 1504.20,2918.30" disallow="tram rail_urban rail rail_electric rail_fast ship" />
    <edge id="-168175012#1" from="1794535924" to="423937955" priority="4" type="highway.unclassified" numLanes="1" speed="13.89" shape="1556.19,3065.77 1561.06,3058.21 1565.42,3050.83 1568.29,3043.56 1569.36,3038.49 1569.85,3034.37 1569.97,3028.35 1569.56,3022.89 1568.85,3018.09 1567.68,3011.71 1565.52,3004.15 1559.25,2987.64" disallow="tram rail_urban rail rail_electric rail_fast ship" />
    <edge id="-168175012#2" from="423937916" to="1794535924" priority="4" type="highway.unclassified" numLanes="1" speed="13.89" disallow="tram rail_urban rail rail_electric rail_fast ship" />
    <edge id="-168175014" from="1794680659" to="1794680789" priority="3" type="highway.residential" numLanes="1" speed="13.89" shape="3071.15,3921.88 3068.31,3955.10 3071.24,3959.88" disallow="tram rail_urban rail rail_electric rail_fast ship" />
    <edge id="-168175015" from="1794680836" to="1794680763" priority="3" type="highway.residential" numLanes="1" speed="13.89" shape="2845.26,3750.68 2852.12,3733.11 2848.88,3723.36 2729.61,3677.58 2705.70,3684.22 2671.17,3671.61 2659.56,3655.75" disallow="tram rail_urban rail rail_electric rail_fast ship" />
    <edge id="-168175017" from="1794680515" to="1794680853" priority="4" type="highway.unclassified" numLanes="1" speed="13.89" disallow="tram rail_urban rail rail_electric rail_fast ship" />
    <edge id="-168175020#0" from="1794680416" to="1794680537" priority="3" type="highway.residential" numLanes="1" speed="5.56" shape="2680.89,2854.78 2674.64,2867.65 2669.38,2875.60 2662.72,2882.37 2653.32,2887.86 2642.31,2891.41 2628.52,2894.48 2618.91,2897.84 2615.23,2899.90" disallow="tram rail_urban rail rail_electric rail_fast ship" />
    <edge id="-168175020#1" from="1794680860" to="1794680416" priority="3" type="highway.residential" numLanes="1" speed="5.56" disallow="tram rail_urban rail rail_electric rail_fast ship" />
    <edge id="-168175020#2" from="1794680764" to="1794680860" priority="3" type="highway.residential" numLanes="1" speed="5.56" shape="2760.68,2746.95 2723.89,2765.01 2712.77,2770.50 2704.55,2776.16 2697.98,2782.62 2690.98,2791.20 2686.15,2799.67 2683.54,2807.25 2681.92,2815.88 2681.36,2823.49" disallow="tram rail_urban rail rail_electric rail_fast ship" />
    <edge id="-168175021#0" from="1794680792" to="1794680733" priority="3" type="highway.residential" numLanes="1" speed="13.89" disallow="tram rail_urban rail rail_electric rail_fast ship" />
    <edge id="-168175021#1" from="1794680733" to="1794680792" priority="3" type="highway.residential" numLanes="1" speed="13.89" shape="2645.90,2644.26 2647.72,2640.50 2647.41,2636.35 2645.07,2632.90 2641.31,2631.08 2637.15,2631.39 2633.70,2633.73 2631.89,2637.49 2632.19,2641.64 2634.54,2645.09 2638.29,2646.91 2642.45,2646.60" disallow="tram rail_urban rail rail_electric rail_fast ship" />
    <edge id="-168175024#0" from="1794680764" to="1794680725" priority="3" type="highway.residential" numLanes="1" speed="5.56" disallow="tram rail_urban rail rail_electric rail_fast ship" />
    <edge id="-168175024#1" from="1794680597" to="1794680764" priority="3" type="highway.residential" numLanes="1" speed="5.56" disallow="tram rail_urban rail rail_electric rail_fast ship" />
    <edge id="-168175024#2" from="1794680791" to="1794680597" priority="3" type="highway.residential" numLanes="1" speed="5.56" disallow="tram rail_urban rail rail_electric rail_fast ship" />
    <edge id="-168175026" from="1794680860" to="1794680466" priority="3" type="highway.residential" numLanes="1" speed="5.56" disallow="tram rail_urban rail rail_electric rail_fast ship" />
    <edge id="-168175027#0" from="1794680508" to="1794680853" priority="4" type="highway.unclassified" numLanes="1" speed="8.33" shape="3197.46,3913.81 3216.61,3917.93 3248.14,3928.57 3333.99,3969.84" disallow="tram rail_urban rail rail_electric rail_fast ship" />
    <edge id="-168175027#1" from="1794680659" to="1794680508" priority="4" type="highway.unclassified" numLanes="1" speed="8.33" shape="3071.15,3921.88 3099.99,3920.67 3168.75,3913.11 3184.89,3912.66 3197.46,3913.81" disallow="tram rail_urban rail rail_electric rail_fast ship" />
    <edge id="-168175027#2" from="1794680682" to="1794680659" priority="4" type="highway.unclassified" numLanes="1" speed="8.33" shape="3001.68,3911.05 3010.27,3917.39 3023.05,3921.32 3071.15,3921.88" disallow="tram rail_urban rail rail_electric rail_fast ship" />
    <edge id="-168175027#3" from="1794680475" to="1794680682" priority="4" type="highway.unclassified" numLanes="1" speed="8.33" shape="2907.63,3777.30 2933.59,3797.96 2957.74,3821.75 2973.37,3846.35 2987.21,3874.53 2996.87,3902.52 3001.68,3911.05" disallow="tram rail_urban rail rail_electric rail_fast ship" />
    <edge id="-168175027#4" from="1794680540" to="1794680475" priority="4" type="highway.unclassified" numLanes="1" speed="8.33" shape="2950.57,3636.13 2922.56,3668.42 2912.04,3682.97 2904.12,3701.66 2899.80,3722.15 2898.88,3744.62 2901.33,3761.51 2907.63,3777.30" disallow="tram rail_urban rail rail_electric rail_fast ship" />
    <edge id="-168175027#5" from="1794680492" to="1794680540" priority="4" type="highway.unclassified" numLanes="1" speed="8.33" shape="3038.22,3485.23 3039.63,3493.33 3037.67,3501.88 3031.73,3517.60 3022.22,3536.12 2996.82,3575.16 2966.65,3617.39 2950.57,3636.13" disallow="tram rail_urban rail rail_electric rail_fast ship" />
    <edge id="-168175027#6" from="7835519625" to="1794680492" priority="4" type="highway.unclassified" numLanes="1" speed="8.33" shape="2981.02,3304.33 2989.67,3324.16 3036.81,3471.86 3038.22,3485.23" disallow="tram rail_urban rail rail_electric rail_fast ship" />
    <edge id="-168175027#7" from="1407328692" to="7835519625" priority="4" type="highway.unclassified" numLanes="1" speed="8.33" shape="2891.21,3113.76 2966.17,3271.21 2981.02,3304.33" disallow="tram rail_urban rail rail_electric rail_fast ship" />
    <edge id="-168175029" from="1794680858" to="1794680452" priority="3" type="highway.residential" numLanes="1" speed="13.89" shape="2547.99,2639.11 2564.69,2664.45 2562.87,2679.49" disallow="tram rail_urban rail rail_electric rail_fast ship" />
    <edge id="-168175032#0" from="1794680469" to="1794680397" priority="4" type="highway.unclassified" numLanes="1" speed="13.89" shape="1531.34,3110.04 1527.91,3116.81 1523.21,3124.53 1518.14,3130.51 1493.57,3156.34 1488.21,3164.20 1486.32,3170.58 1486.58,3176.49" disallow="tram rail_urban rail rail_electric rail_fast ship" />
    <edge id="-168175032#1" from="423937916" to="1794680469" priority="4" type="highway.unclassified" numLanes="1" speed="13.89" disallow="tram rail_urban rail rail_electric rail_fast ship" />
    <edge id="-168175033" from="1776915652" to="1794680747" priority="3" type="highway.residential" numLanes="1" speed="13.89" disallow="tram rail_urban rail rail_electric rail_fast ship" />
    <edge id="-168175034#0" from="1794680727" to="1794680724" priority="3" type="highway.residential" numLanes="1" speed="13.89" disallow="tram rail_urban rail rail_electric rail_fast ship" />
    <edge id="-168175034#1" from="1794680735" to="1794680727" priority="3" type="highway.residential" numLanes="1" speed="13.89" shape="2472.58,2566.00 2438.55,2526.15 2424.74,2507.51 2422.30,2495.80 2425.06,2486.04 2431.22,2479.66 2438.99,2476.66 2448.17,2477.62 2462.34,2483.14 2485.92,2498.37 2510.50,2516.38 2522.51,2528.67" disallow="tram rail_urban rail rail_electric rail_fast ship" />
    <edge id="-168175034#2" from="1794680743" to="1794680735" priority="3" type="highway.residential" numLanes="1" speed="13.89" shape="2482.87,2663.39 2482.48,2606.73 2480.64,2590.24 2477.80,2577.72 2472.58,2566.00" disallow="tram rail_urban rail rail_electric rail_fast ship" />
    <edge id="-168175034#3" from="1794680793" to="1794680743" priority="3" type="highway.residential" numLanes="1" speed="13.89" shape="2513.91,2736.59 2514.04,2728.97 2511.31,2723.16 2489.74,2691.39 2484.51,2676.70 2482.87,2663.39" disallow="tram rail_urban rail rail_electric rail_fast ship" />
    <edge id="-168175034#4" from="1794680424" to="1794680793" priority="3" type="highway.residential" numLanes="1" speed="13.89" shape="2484.68,2761.36 2488.13,2759.16 2505.40,2748.41 2511.78,2742.08 2513.91,2736.59" disallow="tram rail_urban rail rail_electric rail_fast ship" />
    <edge id="-168175035" from="1794680735" to="1794680727" priority="3" type="highway.residential" numLanes="1" speed="13.89" disallow="tram rail_urban rail rail_electric rail_fast ship" />
    <edge id="-168175036#0" from="1794680836" to="1794680475" priority="3" type="highway.residential" numLanes="1" speed="13.89" shape="2845.26,3750.68 2860.95,3757.64 2892.16,3776.48 2901.32,3779.28 2907.63,3777.30" disallow="tram rail_urban rail rail_electric rail_fast ship" />
    <edge id="-168175036#1" from="1776915526" to="1794680836" priority="3" type="highway.residential" numLanes="1" speed="13.89" shape="2746.96,3749.18 2750.38,3742.69 2756.52,3738.84 2787.92,3731.92 2796.29,3731.80 2845.26,3750.68" disallow="tram rail_urban rail rail_electric rail_fast ship" />
    <edge id="-168175037" from="1794680577" to="1794680530" priority="3" type="highway.residential" numLanes="1" speed="13.89" disallow="tram rail_urban rail rail_electric rail_fast ship" />
    <edge id="-168175038" from="1794680416" to="1794680597" priority="3" type="highway.residential" numLanes="1" speed="5.56" shape="2680.89,2854.78 2706.57,2837.70 2763.21,2793.33 2778.73,2782.15" disallow="tram rail_urban rail rail_electric rail_fast ship" />
    <edge id="-168175042#0" from="2955430052" to="1407328660" priority="10" type="highway.tertiary" numLanes="1" speed="22.22" shape="2461.85,2924.04 2467.61,3002.07 2473.16,3077.61 2473.47,3081.61" disallow="tram rail_urban rail rail_electric rail_fast ship">
        <param key="ref" value="C 4" />
    </edge>
    <edge id="-168175042#1" from="1794680795" to="2955430052" priority="10" type="highway.tertiary" numLanes="1" speed="22.22" shape="2432.87,2715.23 2437.38,2723.81 2441.48,2732.09 2446.05,2742.42 2448.15,2750.90 2449.65,2762.85 2451.21,2786.28 2457.26,2865.96 2459.89,2898.49 2461.85,2924.04" disallow="tram rail_urban rail rail_electric rail_fast ship">
        <param key="ref" value="C 4" />
    </edge>
    <edge id="-168175042#2" from="1794680493" to="1794680795" priority="10" type="highway.tertiary" numLanes="1" speed="22.22" shape="2371.45,2615.69 2379.62,2622.38 2384.45,2628.92 2389.28,2637.23 2392.48,2643.39 2408.71,2673.89 2432.87,2715.23" disallow="tram rail_urban rail rail_electric rail_fast ship">
        <param key="ref" value="C 4" />
    </edge>
    <edge id="-168175042#3" from="1794680516" to="1794680493" priority="10" type="highway.tertiary" numLanes="1" speed="22.22" shape="2273.86,2574.10 2290.59,2583.30 2305.21,2589.11 2324.73,2595.19 2348.84,2603.25 2357.26,2606.94 2365.48,2611.32 2371.45,2615.69" disallow="tram rail_urban rail rail_electric rail_fast ship">
        <param key="ref" value="C 4" />
    </edge>
    <edge id="-168175042#4" from="423934781" to="1794680516" priority="10" type="highway.tertiary" numLanes="1" speed="22.22" shape="2195.08,2509.13 2199.50,2514.43 2224.20,2534.31 2251.75,2557.39 2262.30,2565.91 2273.86,2574.10" disallow="tram rail_urban rail rail_electric rail_fast ship">
        <param key="ref" value="C 4" />
    </edge>
    <edge id="-168175043#0" from="4804160610" to="3866686735" priority="3" type="highway.residential" numLanes="1" speed="13.89" shape="2823.08,4020.91 2827.41,4024.10 2828.52,4025.01" disallow="tram rail_urban rail rail_electric rail_fast ship" />
    <edge id="-168175043#1" from="1776915646" to="4804160610" priority="3" type="highway.residential" numLanes="1" speed="13.89" shape="2360.46,3618.92 2360.76,3623.41 2366.41,3630.27 2405.18,3654.28 2452.64,3660.99 2466.98,3659.55 2484.14,3661.28 2500.49,3665.01 2517.67,3673.90 2571.65,3720.03 2593.69,3754.15 2639.43,3780.83 2694.00,3827.56 2720.41,3855.31 2737.86,3889.83 2750.55,3927.56 2783.68,3999.80 2793.27,4007.72 2808.03,4009.86 2823.08,4020.91" disallow="tram rail_urban rail rail_electric rail_fast ship" />
    <edge id="-168175044#0" from="2958122550" to="1794680468" priority="3" type="highway.residential" numLanes="1" speed="13.89" shape="1686.11,2105.21 1695.75,2095.93 1699.01,2092.39 1707.06,2082.67 1732.49,2047.57" disallow="tram rail_urban rail rail_electric rail_fast ship" />
    <edge id="-168175044#1" from="2958122554" to="2958122550" priority="3" type="highway.residential" numLanes="1" speed="13.89" shape="1675.61,2114.85 1681.74,2109.42 1686.11,2105.21" disallow="tram rail_urban rail rail_electric rail_fast ship" />
    <edge id="-168175044#2" from="1794680501" to="2958122554" priority="3" type="highway.residential" numLanes="1" speed="13.89" shape="1663.92,2126.95 1671.17,2118.77 1675.61,2114.85" disallow="tram rail_urban rail rail_electric rail_fast ship" />
    <edge id="-168175044#3" from="2958122571" to="1794680501" priority="3" type="highway.residential" numLanes="1" speed="13.89" shape="1626.74,2155.12 1633.23,2151.57 1648.06,2141.37 1654.41,2134.63 1663.92,2126.95" disallow="tram rail_urban rail rail_electric rail_fast ship" />
    <edge id="-168175044#4" from="423954923" to="2958122571" priority="3" type="highway.residential" numLanes="1" speed="13.89" disallow="tram rail_urban rail rail_electric rail_fast ship" />
    <edge id="-168175047#0" from="2222874581" to="1794680477" priority="3" type="highway.residential" numLanes="1" speed="13.89" shape="2575.83,2765.55 2583.66,2757.55 2591.33,2750.92 2602.79,2741.97 2622.90,2729.51 2643.75,2717.11 2660.67,2706.15 2681.40,2690.50" disallow="tram rail_urban rail rail_electric rail_fast ship" />
    <edge id="-168175047#1" from="1794680512" to="2222874581" priority="3" type="highway.residential" numLanes="1" speed="13.89" shape="2539.10,2817.16 2569.70,2772.65 2575.83,2765.55" disallow="tram rail_urban rail rail_electric rail_fast ship" />
    <edge id="-168175048" from="1794680682" to="1776915652" priority="3" type="highway.residential" numLanes="1" speed="13.89" shape="3001.68,3911.05 2970.71,3948.92 2968.15,3961.45 2969.42,3985.29 2990.47,4086.39 2991.35,4109.24 2989.78,4116.60 2986.17,4120.73" disallow="tram rail_urban rail rail_electric rail_fast ship" />
    <edge id="-168175049#0" from="6548537839" to="6548537866" priority="10" type="highway.tertiary" numLanes="1" speed="22.22" shape="1334.96,5933.14 1080.06,6062.67 907.52,6150.83 720.99,6245.32 685.88,6262.23 648.96,6281.69 623.37,6292.51 608.85,6299.91" disallow="tram rail_urban rail rail_electric rail_fast ship" />
    <edge id="-168175049#1" from="2223033805" to="6548537839" priority="10" type="highway.tertiary" numLanes="1" speed="22.22" shape="1437.61,5890.70 1424.57,5904.70 1412.06,5912.45 1401.87,5916.65 1384.07,5919.91 1362.19,5922.37 1346.29,5927.39 1334.96,5933.14" disallow="tram rail_urban rail rail_electric rail_fast ship" />
    <edge id="-168175049#2" from="2223033804" to="2223033805" priority="10" type="highway.tertiary" numLanes="1" speed="22.22" disallow="tram rail_urban rail rail_electric rail_fast ship" />
    <edge id="-168175049#3" from="8647530406" to="2223033804" priority="10" type="highway.tertiary" numLanes="1" speed="22.22" shape="1580.28,5714.61 1510.04,5778.86 1498.35,5787.28 1483.68,5798.29 1472.53,5808.49 1463.97,5818.40 1458.26,5828.87 1454.46,5840.83 1443.99,5878.75" disallow="tram rail_urban rail rail_electric rail_fast ship" />
    <edge id="-168175049#4" from="2223033794" to="8647530406" priority="10" type="highway.tertiary" numLanes="1" speed="22.22" disallow="tram rail_urban rail rail_electric rail_fast ship" />
    <edge id="-168175049#5" from="6548537833" to="2223033794" priority="10" type="highway.tertiary" numLanes="1" speed="22.22" disallow="tram rail_urban rail rail_electric rail_fast ship" />