<edges xmlns:xsi="http://www.w3.org/2001/XMLSchema-instance" version="1.16" xsi:noNamespaceSchemaLocation="http://sumo.dlr.de/xsd/edges_file.xsd">
    <location netOffset="-476165.53,-5333265.02" convBoundary="0.00,0.00,9554.50,9484.10" origBoundary="2.679349,48.068781,2.812794,48.269237" projParameter="+proj=utm +zone=31 +ellps=WGS84 +datum=WGS84 +units=m +no_defs" />

    <edge id="-1000366825" from="9233990643" to="9233990647" priority="4" type="highway.unclassified" numLanes="1" speed="13.89" shape="4230.04,1151.24 4235.98,1129.30 4241.55,1103.22 4250.58,1066.82 4254.05,1053.64 4257.78,1032.96 4257.21,1025.03 4251.40,1013.01 4245.60,1000.45 4241.40,990.91" disallow="tram rail_urban rail rail_electric rail_fast ship" />
    <edge id="-1058136844#0" from="2724013939" to="2724013917" priority="4" type="highway.unclassified" numLanes="1" speed="13.89" shape="3598.44,983.27 3603.68,979.75 3609.60,972.38 3609.68,958.62 3613.18,949.64 3621.64,942.32 3632.05,936.91 3637.32,930.69 3638.55,921.88 3639.54,918.54" disallow="tram rail_urban rail rail_electric rail_fast ship" />
    <edge id="-1059337931" from="9733100158" to="9733100160" priority="3" type="highway.residential" numLanes="1" speed="13.89" shape="5880.01,4132.50 5860.38,4102.85 5825.99,4100.47" disallow="tram rail_urban rail rail_electric rail_fast ship" />
    <edge id="-1059337932" from="9733100161" to="9733100167" priority="3" type="highway.residential" numLanes="1" speed="13.89" shape="5745.93,4093.86 5751.53,4099.71 5770.87,4101.04 5774.16,4104.01 5776.58,4111.65 5776.02,4121.79 5795.03,4178.08" disallow="tram rail_urban rail rail_electric rail_fast ship" />
    <edge id="-1059337936" from="9733100174" to="1776915713" priority="3" type="highway.residential" numLanes="1" speed="13.89" shape="7237.67,2895.69 7196.64,3015.59 7194.59,3024.25" disallow="tram rail_urban rail rail_electric rail_fast ship" />
    <edge id="-1062357075" from="2140530748" to="9759736043" priority="3" type="highway.residential" numLanes="1" speed="13.89" shape="2341.29,5487.25 2344.54,5478.88 2352.88,5470.50 2367.95,5448.98 2397.14,5420.86 2424.75,5398.11 2435.46,5382.56 2447.95,5366.62 2458.10,5362.01 2474.68,5372.48 2488.64,5372.62 2506.34,5364.61 2515.68,5357.82" disallow="tram rail_urban rail rail_electric rail_fast ship" />
    <edge id="-1065595929#0" from="9786074895" to="3864796556" priority="3" type="highway.residential" numLanes="1" speed="13.89" disallow="tram rail_urban rail rail_electric rail_fast ship" />
    <edge id="-1065595929#1" from="5882877286" to="9786074895" priority="3" type="highway.residential" numLanes="1" speed="13.89" disallow="tram rail_urban rail rail_electric rail_fast ship" />
    <edge id="-1065595929#2" from="9786075778" to="5882877286" priority="3" type="highway.residential" numLanes="1" speed="13.89" disallow="tram rail_urban rail rail_electric rail_fast ship" />
    <edge id="-1065595929#3" from="2622975901" to="9786075778" priority="3" type="highway.residential" numLanes="1" speed="13.89" disallow="tram rail_urban rail rail_electric rail_fast ship" />
    <edge id="-1065595929#4" from="9786075749" to="2622975901" priority="3" type="highway.residential" numLanes="1" speed="13.89" disallow="tram rail_urban rail rail_electric rail_fast ship" />
    <edge id="-1065595930#0" from="9786074896" to="386027400" priority="3" type="highway.residential" numLanes="1" speed="13.89" shape="4152.44,3333.68 4148.52,3339.35 4140.74,3348.38 4117.75,3376.58 4092.04,3402.58" disallow="tram rail_urban rail rail_electric rail_fast ship" />
    <edge id="-1065595930#1" from="3864797460" to="9786074896" priority="3" type="highway.residential" numLanes="1" speed="13.89" disallow="tram rail_urban rail rail_electric rail_fast ship" />
    <edge id="-1065595933" from="1794680397" to="1794680798" priority="4" type="highway.unclassified" numLanes="1" speed="13.89" disallow="tram rail_urban rail rail_electric rail_fast ship" />
    <edge id="-1114866190" from="2222874354" to="2222874359" priority="3" type="highway.residential" numLanes="1" speed="13.89" shape="6221.72,1697.29 6184.01,1761.15 6173.79,1771.99" disallow="tram rail_urban rail rail_electric rail_fast ship" />
    <edge id="-1114866191#0" from="2222874390" to="2222874359" priority="4" type="highway.unclassified" numLanes="1" speed="13.89" shape="6205.11,1849.29 6200.64,1833.40 6173.79,1771.99" disallow="tram rail_urban rail rail_electric rail_fast ship" />
    <edge id="-1114866191#1" from="2222874545" to="2222874390" priority="4" type="highway.unclassified" numLanes="1" speed="13.89" shape="6343.33,2227.60 6331.05,2213.78 6324.42,2208.26 6314.89,2203.72 6300.31,2199.72 6291.64,2196.44 6284.47,2192.23 6276.99,2185.20 6269.30,2173.51 6246.17,2132.51 6241.44,2121.74 6236.77,2108.34 6233.36,2096.97 6231.26,2086.98 6229.68,2071.42 6228.24,2003.75 6226.92,1988.90 6219.24,1937.46 6213.26,1905.73 6207.21,1862.96 6205.11,1849.29" disallow="tram rail_urban rail rail_electric rail_fast ship" />
    <edge id="-1125009822" from="10287742935" to="5365465669" priority="4" type="highway.unclassified" numLanes="1" speed="13.89" shape="5925.65,3037.69 5927.82,3038.16 5942.51,3042.07 5947.88,3043.63" disallow="tram rail_urban rail rail_electric rail_fast ship" />
    <edge id="-1134813071#0" from="10089084734" to="1841717987" priority="10" type="highway.tertiary" numLanes="1" speed="13.89" shape="6163.03,4017.75 6211.68,4017.60 6273.89,4020.60 6318.57,4028.41 6369.63,4037.79 6496.86,4074.14" disallow="tram rail_urban rail rail_electric rail_fast ship">
        <param key="ref" value="D 120" />
    </edge>
    <edge id="-1134813071#1" from="2984127705" to="10089084734" priority="10" type="highway.tertiary" numLanes="1" speed="13.89" shape="6113.76,4018.26 6123.97,4017.87 6163.03,4017.75" disallow="tram rail_urban rail rail_electric rail_fast ship">
        <param key="ref" value="D 120" />
    </edge>
    <edge id="-1134813071#2" from="1794680515" to="2984127705" priority="10" type="highway.tertiary" numLanes="1" speed="13.89" disallow="tram rail_urban rail rail_electric rail_fast ship">
        <param key="ref" value="D 120" />
    </edge>
    <edge id="-1134813071#3" from="1794680543" to="1794680515" priority="10" type="highway.tertiary" numLanes="1" speed="13.89" shape="6005.43,4025.03 6012.35,4023.00 6033.08,4021.35 6036.04,4021.24" disallow="tram rail_urban rail rail_electric rail_fast ship">
        <param key="ref" value="D 120" />
    </edge>
    <edge id="-1134813071#4" from="1776915654" to="1794680543" priority="10" type="highway.tertiary" numLanes="1" speed="13.89" shape="5932.30,4081.23 5961.16,4050.18 5985.02,4031.03 6005.43,4025.03" disallow="tram rail_urban rail rail_electric rail_fast ship">
        <param key="ref" value="D 120" />
    </edge>
    <edge id="-1156904873#0" from="5365465672" to="5365465669" priority="4" type="highway.unclassified" numLanes="1" speed="13.89" disallow="tram rail_urban rail rail_electric rail_fast ship" />
    <edge id="-1156904873#1" from="5365465707" to="5365465672" priority="4" type="highway.unclassified" numLanes="1" speed="13.89" shape="5905.80,3156.36 5912.51,3150.57 5917.09,3147.18 5919.53,3144.43 5922.20,3140.50 5924.83,3133.37 5935.54,3091.33 5938.02,3081.59" disallow="tram rail_urban rail rail_electric rail_fast ship" />
    <edge id="-1156904874" from="5365465648" to="5365465707" priority="4" type="highway.unclassified" numLanes="1" speed="13.89" shape="5897.30,3172.31 5901.67,3162.19 5905.80,3156.36" disallow="tram rail_urban rail rail_electric rail_fast ship" />
    <edge id="-122166912#0" from="2729310761" to="1365950513" priority="10" type="highway.tertiary" numLanes="1" speed="22.22" shape="1306.48,5957.59 1292.74,5966.20 1277.50,5973.25 1263.41,5977.85 1248.56,5982.01 1225.70,5985.23 1182.22,5988.50" disallow="tram rail_urban rail rail_electric rail_fast ship" />
    <edge id="-122166912#1" from="2729378462" to="2729310761" priority="10" type="highway.tertiary" numLanes="1" speed="22.22" shape="1781.62,5768.86 1762.53,5773.25 1698.40,5796.92 1635.91,5821.86 1555.58,5852.88 1477.48,5879.01 1436.07,5889.71 1404.75,5895.17 1388.33,5898.67 1366.92,5908.18 1348.61,5919.54 1332.99,5934.45 1311.23,5954.61 1306.48,5957.59" disallow="tram rail_urban rail rail_electric rail_fast ship" />
    <edge id="-127089283#0" from="1407328599" to="1407328580" priority="10" type="highway.tertiary" numLanes="1" speed="22.22" shape="6394.14,2608.46 6310.66,2295.43 6308.85,2283.52 6309.50,2275.65" disallow="tram rail_urban rail rail_electric rail_fast ship">
        <param key="ref" value="D 377" />
    </edge>
    <edge id="-127089283#1" from="5365465630" to="1407328599" priority="10" type="highway.tertiary" numLanes="1" speed="22.22" disallow="tram rail_urban rail rail_electric rail_fast ship">
        <param key="ref" value="D 377" />
    </edge>
    <edge id="-127089283#2" from="1407328727" to="5365465630" priority="10" type="highway.tertiary" numLanes="1" speed="22.22" shape="6402.32,3267.21 6403.58,3261.91 6420.58,3193.76 6463.36,3030.04 6468.89,2997.41 6470.22,2973.21 6469.74,2932.71 6437.91,2792.61" disallow="tram rail_urban rail rail_electric rail_fast ship">
        <param key="ref" value="D 377" />
    </edge>
    <edge id="-127089287#0" from="1407328680" to="1407328692" priority="10" type="highway.tertiary" numLanes="1" speed="22.22" shape="5309.50,3122.08 5388.23,3129.85 5493.59,3142.55 5565.13,3151.50" disallow="tram rail_urban rail rail_electric rail_fast ship">
        <param key="ref" value="D 30" />
    </edge>
    <edge id="-127089287#1" from="1407328660" to="1407328680" priority="10" type="highway.tertiary" numLanes="1" speed="22.22" shape="5147.38,3119.35 5182.98,3116.98 5228.63,3115.84 5309.50,3122.08" disallow="tram rail_urban rail rail_electric rail_fast ship">
        <param key="ref" value="D 30" />
    </edge>
    <edge id="-127089287#2" from="1794680688" to="1407328660" priority="10" type="highway.tertiary" numLanes="1" speed="22.22" shape="4856.03,3155.06 4872.69,3154.47 4890.20,3150.98 4941.24,3137.69 4971.68,3131.35 5003.91,3127.26 5134.76,3120.05 5147.38,3119.35" disallow="tram rail_urban rail rail_electric rail_fast ship">
        <param key="ref" value="D 30" />
    </edge>
    <edge id="-127089287#3" from="2222874589" to="1794680688" priority="10" type="highway.tertiary" numLanes="1" speed="22.22" shape="4701.12,3048.35 4721.08,3055.81 4744.30,3070.58 4788.57,3112.30 4816.62,3138.23 4828.22,3146.53 4841.30,3152.16 4856.03,3155.06" disallow="tram rail_urban rail rail_electric rail_fast ship">
        <param key="ref" value="D 30" />
    </edge>
    <edge id="-127089287#4" from="1407328657" to="2222874589" priority="10" type="highway.tertiary" numLanes="1" speed="22.22" shape="4590.06,3081.89 4604.61,3070.49 4619.17,3061.48 4635.80,3053.25 4652.92,3047.22 4669.90,3045.34 4684.26,3045.34 4701.12,3048.35" disallow="tram rail_urban rail rail_electric rail_fast ship">
        <param key="ref" value="D 30" />
    </edge>
    <edge id="-127089287#5" from="8124130128" to="1407328657" priority="10" type="highway.tertiary" numLanes="1" speed="22.22" shape="4244.73,3465.52 4246.57,3460.70 4250.25,3451.37 4261.51,3418.29 4274.17,3388.19 4285.72,3368.10 4306.25,3343.40 4399.70,3256.85 4590.06,3081.89" disallow="tram rail_urban rail rail_electric rail_fast ship">
        <param key="ref" value="D 30" />
    </edge>
    <edge id="-127089287#6" from="1407328781" to="8124130128" priority="10" type="highway.tertiary" numLanes="1" speed="22.22" shape="4183.60,3505.39 4187.69,3504.42 4192.79,3503.24 4201.04,3500.96 4205.70,3499.67 4215.05,3496.01 4223.13,3491.53 4230.70,3486.02 4237.51,3479.69 4241.50,3473.98 4244.73,3465.52" disallow="tram rail_urban rail rail_electric rail_fast ship">
        <param key="ref" value="D 30" />
    </edge>
    <edge id="-127089287#7" from="1407328768" to="1407328781" priority="10" type="highway.tertiary" numLanes="1" speed="22.22" shape="4164.34,3498.62 4173.87,3502.30 4183.60,3505.39" disallow="tram rail_urban rail rail_electric rail_fast ship">
        <param key="ref" value="D 30" />
    </edge>
    <edge id="-143984303" from="2140527747" to="1575632347" priority="11" type="highway.secondary" numLanes="1" speed="19.44" disallow="tram rail_urban rail rail_electric rail_fast ship">
        <param key="ref" value="D 207a" />
    </edge>
    <edge id="-143984305" from="1575632347" to="2140527737" priority="11" type="highway.secondary" numLanes="1" speed="27.78" shape="3381.43,3142.33 3358.00,3115.20 3348.03,3108.84" disallow="tram rail_urban rail rail_electric rail_fast ship">
        <param key="ref" value="D 207a" />
    </edge>
    <edge id="-166220361#0" from="1776915558" to="1776915666" priority="10" type="highway.tertiary" numLanes="1" speed="22.22" shape="6708.96,3252.90 6743.79,3241.58 6765.94,3236.03 6789.89,3231.03 6801.45,3229.26 6814.96,3226.74" disallow="tram rail_urban rail rail_electric rail_fast ship">
        <param key="ref" value="D 30" />
    </edge>
    <edge id="-166251889#0" from="1777135940" to="1777135766" priority="10" type="highway.tertiary" numLanes="1" speed="22.22" shape="5794.78,4307.59 5783.55,4284.58 5757.84,4225.83 5738.96,4191.77" disallow="tram rail_urban rail rail_electric rail_fast ship">
        <param key="ref" value="D 136" />
    </edge>
    <edge id="-166251889#1" from="2984127629" to="1777135940" priority="10" type="highway.tertiary" numLanes="1" speed="22.22" shape="5905.09,4460.27 5887.71,4435.21 5867.65,4405.94 5821.49,4343.12 5794.78,4307.59" disallow="tram rail_urban rail rail_electric rail_fast ship">
        <param key="ref" value="D 136" />
    </edge>
    <edge id="-166251889#2" from="2984127727" to="2984127629" priority="10" type="highway.tertiary" numLanes="1" speed="22.22" disallow="tram rail_urban rail rail_electric rail_fast ship">
        <param key="ref" value="D 136" />
    </edge>
    <edge id="-166251889#3" from="1777136076" to="2984127727" priority="10" type="highway.tertiary" numLanes="1" speed="22.22" shape="5966.51,4641.65 5953.67,4616.26 5946.16,4587.11 5923.33,4501.88 5908.56,4470.13 5907.03,4465.76" disallow="tram rail_urban rail rail_electric rail_fast ship">
        <param key="ref" value="D 136" />
    </edge>
    <edge id="-166251889#4" from="2222874675" to="1777136076" priority="10" type="highway.tertiary" numLanes="1" speed="22.22" shape="6362.84,4835.03 6347.63,4827.99 6245.45,4785.38 6107.09,4725.48 6033.62,4687.55 5966.51,4641.65" disallow="tram rail_urban rail rail_electric rail_fast ship">
        <param key="ref" value="D 136" />
    </edge>
    <edge id="-166251889#5" from="10089080215" to="2222874675" priority="10" type="highway.tertiary" numLanes="1" speed="22.22" disallow="tram rail_urban rail rail_electric rail_fast ship">
        <param key="ref" value="D 136" />
    </edge>
    <edge id="-168175012#0" from="423937955" to="1794680395" priority="4" type="highway.unclassified" numLanes="1" speed="13.89" shape="4233.16,3025.38 4229.16,3016.39 4224.36,3007.40 4215.87,2994.17 4209.27,2985.55 4199.16,2974.56 4190.61,2965.78 4187.83,2963.64 4182.58,2959.40 4178.11,2956.03" disallow="tram rail_urban rail rail_electric rail_fast ship" />
    <edge id="-168175012#1" from="1794535924" to="423937955" priority="4" type="highway.unclassified" numLanes="1" speed="13.89" shape="4230.11,3103.51 4234.97,3095.94 4239.33,3088.57 4242.20,3081.30 4243.27,3076.23 4243.76,3072.11 4243.89,3066.09 4243.47,3060.62 4242.77,3055.83 4241.59,3049.45 4239.43,3041.89 4233.16,3025.38" disallow="tram rail_urban rail rail_electric rail_fast ship" />
    <edge id="-168175012#2" from="423937916" to="1794535924" priority="4" type="highway.unclassified" numLanes="1" speed="13.89" disallow="tram rail_urban rail rail_electric rail_fast ship" />
    <edge id="-168175014" from="1794680659" to="1794680789" priority="3" type="highway.residential" numLanes="1" speed="13.89" shape="5745.06,3959.62 5742.22,3992.84 5745.15,3997.62" disallow="tram rail_urban rail rail_electric rail_fast ship" />
    <edge id="-168175015" from="1794680836" to="1794680763" priority="3" type="highway.residential" numLanes="1" speed="13.89" shape="5519.17,3788.42 5526.03,3770.85 5522.79,3761.10 5403.52,3715.32 5379.61,3721.96 5345.08,3709.35 5333.47,3693.48" disallow="tram rail_urban rail rail_electric rail_fast ship" />
    <edge id="-168175017" from="1794680515" to="1794680853" priority="4" type="highway.unclassified" numLanes="1" speed="13.89" disallow="tram rail_urban rail rail_electric rail_fast ship" />
    <edge id="-168175020#0" from="1794680416" to="1794680537" priority="3" type="highway.residential" numLanes="1" speed="5.56" shape="5354.80,2892.52 5348.56,2905.39 5343.29,2913.34 5336.64,2920.11 5327.23,2925.60 5316.22,2929.15 5302.43,2932.22 5292.83,2935.58 5289.14,2937.64" disallow="tram rail_urban rail rail_electric rail_fast ship" />
    <edge id="-168175020#1" from="1794680860" to="1794680416" priority="3" type="highway.residential" numLanes="1" speed="5.56" disallow="tram rail_urban rail rail_electric rail_fast ship" />
    <edge id="-168175020#2" from="1794680764" to="1794680860" priority="3" type="highway.residential" numLanes="1" speed="5.56" shape="5434.59,2784.69 5397.80,2802.75 5386.68,2808.24 5378.46,2813.89 5371.89,2820.36 5364.89,2828.94 5360.06,2837.41 5357.45,2844.98 5355.83,2853.61 5355.27,2861.23" disallow="tram rail_urban rail rail_electric rail_fast ship" />
    <edge id="-168175021#0" from="1794680792" to="1794680733" priority="3" type="highway.residential" numLanes="1" speed="13.89" disallow="tram rail_urban rail rail_electric rail_fast ship" />
    <edge id="-168175021#1" from="1794680733" to="1794680792" priority="3" type="highway.residential" numLanes="1" speed="13.89" shape="5319.81,2682.00 5321.63,2678.24 5321.32,2674.09 5318.98,2670.64 5315.22,2668.81 5311.06,2669.13 5307.61,2671.47 5305.80,2675.22 5306.10,2679.38 5308.45,2682.83 5312.20,2684.65 5316.36,2684.34" disallow="tram rail_urban rail rail_electric rail_fast ship" />
    <edge id="-168175024#0" from="1794680764" to="1794680725" priority="3" type="highway.residential" numLanes="1" speed="5.56" disallow="tram rail_urban rail rail_electric rail_fast ship" />
    <edge id="-168175024#1" from="1794680597" to="1794680764" priority="3" type="highway.residential" numLanes="1" speed="5.56" disallow="tram rail_urban rail rail_electric rail_fast ship" />
    <edge id="-168175024#2" from="1794680791" to="1794680597" priority="3" type="highway.residential" numLanes="1" speed="5.56" disallow="tram rail_urban rail rail_electric rail_fast ship" />
    <edge id="-168175026" from="1794680860" to="1794680466" priority="3" type="highway.residential" numLanes="1" speed="5.56" disallow="tram rail_urban rail rail_electric rail_fast ship" />
    <edge id="-168175027#0" from="1794680508" to="1794680853" priority="4" type="highway.unclassified" numLanes="1" speed="8.33" shape="5871.37,3951.55 5890.52,3955.67 5922.05,3966.31 6007.90,4007.57" disallow="tram rail_urban rail rail_electric rail_fast ship" />
    <edge id="-168175027#1" from="1794680659" to="1794680508" priority="4" type="highway.unclassified" numLanes="1" speed="8.33" shape="5745.06,3959.62 5773.90,3958.41 5842.66,3950.85 5858.80,3950.40 5871.37,3951.55" disallow="tram rail_urban rail rail_electric rail_fast ship" />
    <edge id="-168175027#2" from="1794680682" to="1794680659" priority="4" type="highway.unclassified" numLanes="1" speed="8.33" shape="5675.59,3948.79 5684.18,3955.13 5696.96,3959.06 5745.06,3959.62" disallow="tram rail_urban rail rail_electric rail_fast ship" />
    <edge id="-168175027#3" from="1794680475" to="1794680682" priority="4" type="highway.unclassified" numLanes="1" speed="8.33" shape="5581.54,3815.04 5607.50,3835.70 5631.65,3859.49 5647.28,3884.09 5661.13,3912.27 5670.78,3940.26 5675.59,3948.79" disallow="tram rail_urban rail rail_electric rail_fast ship" />
    <edge id="-168175027#4" from="1794680540" to="1794680475" priority="4" type="highway.unclassified" numLanes="1" speed="8.33" shape="5624.48,3673.86 5596.47,3706.15 5585.95,3720.70 5578.03,3739.40 5573.71,3759.89 5572.79,3782.36 5575.24,3799.24 5581.54,3815.04" disallow="tram rail_urban rail rail_electric rail_fast ship" />
    <edge id="-168175027#5" from="1794680492" to="1794680540" priority="4" type="highway.unclassified" numLanes="1" speed="8.33" shape="5712.13,3522.97 5713.54,3531.06 5711.58,3539.62 5705.64,3555.34 5696.13,3573.86 5670.74,3612.90 5640.57,3655.13 5624.48,3673.86" disallow="tram rail_urban rail rail_electric rail_fast ship" />
    <edge id="-168175027#6" from="7835519625" to="1794680492" priority="4" type="highway.unclassified" numLanes="1" speed="8.33" shape="5654.93,3342.07 5663.58,3361.90 5710.72,3509.60 5712.13,3522.97" disallow="tram rail_urban rail rail_electric rail_fast ship" />
    <edge id="-168175027#7" from="1407328692" to="7835519625" priority="4" type="highway.unclassified" numLanes="1" speed="8.33" shape="5565.13,3151.50 5640.08,3308.95 5654.93,3342.07" disallow="tram rail_urban rail rail_electric rail_fast ship" />
    <edge id="-168175029" from="1794680858" to="1794680452" priority="3" type="highway.residential" numLanes="1" speed="13.89" shape="5221.90,2676.85 5238.60,2702.19 5236.79,2717.23" disallow="tram rail_urban rail rail_electric rail_fast ship" />
    <edge id="-168175032#0" from="1794680469" to="1794680397" priority="4" type="highway.unclassified" numLanes="1" speed="13.89" shape="4205.25,3147.78 4201.82,3154.55 4197.12,3162.26 4192.05,3168.25 4167.48,3194.08 4162.12,3201.94 4160.23,3208.32 4160.49,3214.23" disallow="tram rail_urban rail rail_electric rail_fast ship" />
    <edge id="-168175032#1" from="423937916" to="1794680469" priority="4" type="highway.unclassified" numLanes="1" speed="13.89" disallow="tram rail_urban rail rail_electric rail_fast ship" />
    <edge id="-168175033" from="1776915652" to="1794680747" priority="3" type="highway.residential" numLanes="1" speed="13.89" disallow="tram rail_urban rail rail_electric rail_fast ship" />
    <edge id="-168175034#0" from="1794680727" to="1794680724" priority="3" type="highway.residential" numLanes="1" speed="13.89" disallow="tram rail_urban rail rail_electric rail_fast ship" />
    <edge id="-168175034#1" from="1794680735" to="1794680727" priority="3" type="highway.residential" numLanes="1" speed="13.89" shape="5146.49,2603.74 5112.46,2563.89 5098.65,2545.25 5096.21,2533.54 5098.97,2523.78 5105.13,2517.40 5112.90,2514.40 5122.08,2515.36 5136.25,2520.88 5159.83,2536.11 5184.42,2554.12 5196.42,2566.41" disallow="tram rail_urban rail rail_electric rail_fast ship" />
    <edge id="-168175034#2" from="1794680743" to="1794680735" priority="3" type="highway.residential" numLanes="1" speed="13.89" shape="5156.78,2701.13 5156.39,2644.47 5154.55,2627.98 5151.71,2615.46 5146.49,2603.74" disallow="tram rail_urban rail rail_electric rail_fast ship" />
    <edge id="-168175034#3" from="1794680793" to="1794680743" priority="3" type="highway.residential" numLanes="1" speed="13.89" shape="5187.82,2774.33 5187.96,2766.71 5185.22,2760.90 5163.65,2729.13 5158.42,2714.44 5156.78,2701.13" disallow="tram rail_urban rail rail_electric rail_fast ship" />
    <edge id="-168175034#4" from="1794680424" to="1794680793" priority="3" type="highway.residential" numLanes="1" speed="13.89" shape="5158.59,2799.10 5162.04,2796.90 5179.31,2786.15 5185.69,2779.82 5187.82,2774.33" disallow="tram rail_urban rail rail_electric rail_fast ship" />
    <edge id="-168175035" from="1794680735" to="1794680727" priority="3" type="highway.residential" numLanes="1" speed="13.89" disallow="tram rail_urban rail rail_electric rail_fast ship" />
    <edge id="-168175036#0" from="1794680836" to="1794680475" priority="3" type="highway.residential" numLanes="1" speed="13.89" shape="5519.17,3788.42 5534.86,3795.38 5566.07,3814.22 5575.24,3817.02 5581.54,3815.04" disallow="tram rail_urban rail rail_electric rail_fast ship" />
    <edge id="-168175036#1" from="1776915526" to="1794680836" priority="3" type="highway.residential" numLanes="1" speed="13.89" shape="5420.87,3786.92 5424.29,3780.43 5430.44,3776.58 5461.83,3769.66 5470.20,3769.54 5519.17,3788.42" disallow="tram rail_urban rail rail_electric rail_fast ship" />
    <edge id="-168175037" from="1794680577" to="1794680530" priority="3" type="highway.residential" numLanes="1" speed="13.89" disallow="tram rail_urban rail rail_electric rail_fast ship" />
    <edge id="-168175038" from="1794680416" to="1794680597" priority="3" type="highway.residential" numLanes="1" speed="5.56" shape="5354.80,2892.52 5380.48,2875.44 5437.12,2831.07 5452.64,2819.89" disallow="tram rail_urban rail rail_electric rail_fast ship" />
    <edge id="-168175042#0" from="2955430052" to="1407328660" priority="10" type="highway.tertiary" numLanes="1" speed="22.22" shape="5135.76,2961.78 5141.52,3039.81 5147.07,3115.35 5147.38,3119.35" disallow="tram rail_urban rail rail_electric rail_fast ship">
        <param key="ref" value="C 4" />
    </edge>
    <edge id="-168175042#1" from="1794680795" to="2955430052" priority="10" type="highway.tertiary" numLanes="1" speed="22.22" shape="5106.78,2752.97 5111.29,2761.54 5115.39,2769.83 5119.96,2780.16 5122.07,2788.64 5123.56,2800.58 5125.13,2824.02 5131.17,2903.70 5133.80,2936.23 5135.76,2961.78" disallow="tram rail_urban rail rail_electric rail_fast ship">
        <param key="ref" value="C 4" />
    </edge>
    <edge id="-168175042#2" from="1794680493" to="1794680795" priority="10" type="highway.tertiary" numLanes="1" speed="22.22" shape="5045.36,2653.43 5053.53,2660.12 5058.36,2666.66 5063.19,2674.97 5066.39,2681.13 5082.62,2711.63 5106.78,2752.97" disallow="tram rail_urban rail rail_electric rail_fast ship">
        <param key="ref" value="C 4" />
    </edge>
    <edge id="-168175042#3" from="1794680516" to="1794680493" priority="10" type="highway.tertiary" numLanes="1" speed="22.22" shape="4947.77,2611.84 4964.50,2621.04 4979.13,2626.85 4998.65,2632.92 5022.75,2640.99 5031.17,2644.68 5039.39,2649.06 5045.36,2653.43" disallow="tram rail_urban rail rail_electric rail_fast ship">
        <param key="ref" value="C 4" />
    </edge>
    <edge id="-168175042#4" from="423934781" to="1794680516" priority="10" type="highway.tertiary" numLanes="1" speed="22.22" shape="4868.99,2546.87 4873.41,2552.17 4898.11,2572.05 4925.67,2595.13 4936.21,2603.65 4947.77,2611.84" disallow="tram rail_urban rail rail_electric rail_fast ship">
        <param key="ref" value="C 4" />
    </edge>
    <edge id="-168175043#0" from="4804160610" to="3866686735" priority="3" type="highway.residential" numLanes="1" speed="13.89" shape="5496.99,4058.65 5501.32,4061.84 5502.43,4062.75" disallow="tram rail_urban rail rail_electric rail_fast ship" />
    <edge id="-168175043#1" from="1776915646" to="4804160610" priority="3" type="highway.residential" numLanes="1" speed="13.89" shape="5034.37,3656.66 5034.67,3661.15 5040.32,3668.01 5079.09,3692.02 5126.55,3698.73 5140.89,3697.29 5158.05,3699.02 5174.41,3702.75 5191.58,3711.64 5245.56,3757.77 5267.60,3791.89 5313.34,3818.57 5367.92,3865.30 5394.32,3893.05 5411.78,3927.57 5424.46,3965.30 5457.59,4037.54 5467.18,4045.46 5481.94,4047.60 5496.99,4058.65" disallow="tram rail_urban rail rail_electric rail_fast ship" />
    <edge id="-168175044#0" from="2958122550" to="1794680468" priority="3" type="highway.residential" numLanes="1" speed="13.89" shape="4360.02,2142.95 4369.66,2133.67 4372.92,2130.13 4380.97,2120.41 4406.40,2085.31" disallow="tram rail_urban rail rail_electric rail_fast ship" />
    <edge id="-168175044#1" from="2958122554" to="2958122550" priority="3" type="highway.residential" numLanes="1" speed="13.89" shape="4349.53,2152.59 4355.65,2147.16 4360.02,2142.95" disallow="tram rail_urban rail rail_electric rail_fast ship" />
    <edge id="-168175044#2" from="1794680501" to="2958122554" priority="3" type="highway.residential" numLanes="1" speed="13.89" shape="4337.84,2164.69 4345.09,2156.51 4349.53,2152.59" disallow="tram rail_urban rail rail_electric rail_fast ship" />
    <edge id="-168175044#3" from="2958122571" to="1794680501" priority="3" type="highway.residential" numLanes="1" speed="13.89" shape="4300.65,2192.86 4307.14,2189.31 4321.97,2179.11 4328.32,2172.36 4337.84,2164.69" disallow="tram rail_urban rail rail_electric rail_fast ship" />
    <edge id="-168175044#4" from="423954923" to="2958122571" priority="3" type="highway.residential" numLanes="1" speed="13.89" disallow="tram rail_urban rail rail_electric rail_fast ship" />
    <edge id="-168175047#0" from="2222874581" to="1794680477" priority="3" type="highway.residential" numLanes="1" speed="13.89" shape="5249.74,2803.29 5257.57,2795.29 5265.24,2788.66 5276.70,2779.71 5296.81,2767.25 5317.66,2754.85 5334.59,2743.89 5355.31,2728.24" disallow="tram rail_urban rail rail_electric rail_fast ship" />
    <edge id="-168175047#1" from="1794680512" to="2222874581" priority="3" type="highway.residential" numLanes="1" speed="13.89" shape="5213.01,2854.90 5243.61,2810.39 5249.74,2803.29" disallow="tram rail_urban rail rail_electric rail_fast ship" />
    <edge id="-168175048" from="1794680682" to="1776915652" priority="3" type="highway.residential" numLanes="1" speed="13.89" shape="5675.59,3948.79 5644.62,3986.66 5642.06,3999.19 5643.34,4023.03 5664.39,4124.13 5665.26,4146.98 5663.69,4154.34 5660.08,4158.47" disallow="tram rail_urban rail rail_electric rail_fast ship" />
    <edge id="-168175049#0" from="6548537839" to="6548537866" priority="10" type="highway.tertiary" numLanes="1" speed="22.22" shape="4008.87,5970.88 3753.97,6100.41 3581.43,6188.57 3394.90,6283.06 3359.79,6299.97 3322.87,6319.43 3297.28,6330.25 3282.76,6337.65" disallow="tram rail_urban rail rail_electric rail_fast ship" />