<?xml version="1.0" encoding="UTF-8"?>

<!-- generated on 2025-04-08 22:40:25 by Eclipse SUMO netconvert Version 1.19.0
<configuration xmlns:xsi="http://www.w3.org/2001/XMLSchema-instance" xsi:noNamespaceSchemaLocation="http://sumo.dlr.de/xsd/netconvertConfiguration.xsd">

    <input>
        <sumo-net-file value="souppes_sur_loing/souppes_sur_loing.net.xml"/>
    </input>

    <output>
        <plain-output-prefix value="souppes_sur_loing/souppes_sur_loing"/>
    </output>

    <processing>
        <geometry.min-radius.fix.railways value="false"/>
        <geometry.max-grade.fix value="false"/>
        <offset.disable-normalization value="true"/>
        <lefthand value="0"/>
    </processing>

    <tls_building>
        <tls.ignore-internal-junction-jam value="1"/>
    </tls_building>

    <junctions>
        <no-turnarounds value="true"/>
        <junctions.corner-detail value="5"/>
        <junctions.limit-turn-speed value="5.50"/>
        <rectangular-lane-cut value="0"/>
    </junctions>

    <pedestrian>
        <walkingareas value="0"/>
    </pedestrian>

</configuration>
-->

<connections version="1.16" xmlns:xsi="http://www.w3.org/2001/XMLSchema-instance" xsi:noNamespaceSchemaLocation="http://sumo.dlr.de/xsd/connections_file.xsd">
    <connection from="-1000366825" to="-36352432#0" fromLane="0" toLane="0"/>
    <connection from="-1000366825" to="36352432#1" fromLane="0" toLane="0"/>
    <connection from="-1000366825" to="1000366825" fromLane="0" toLane="0"/>

    <connection from="-1000869282" to="-1000869283#0" fromLane="0" toLane="0"/>
    <connection from="-1000869282" to="1000869283#1" fromLane="0" toLane="0"/>
    <connection from="-1000869282" to="1000869282" fromLane="0" toLane="0"/>

    <connection from="-1000869283#0" to="1000869284" fromLane="0" toLane="0"/>
    <connection from="-1000869283#0" to="1000869283#0" fromLane="0" toLane="0"/>

    <connection from="-1000869283#1" to="1000869282" fromLane="0" toLane="0"/>
    <connection from="-1000869283#1" to="-1000869283#0" fromLane="0" toLane="0"/>
    <connection from="-1000869283#1" to="1000869283#1" fromLane="0" toLane="0"/>

    <connection from="-1058136844#0" to="1058136844#0" fromLane="0" toLane="0"/>

    <connection from="-1059337919" to="-267280318#1" fromLane="0" toLane="0"/>
    <connection from="-1059337919" to="267280318#2" fromLane="0" toLane="0"/>
    <connection from="-1059337919" to="1059337919" fromLane="0" toLane="0"/>

    <connection from="-1059337926#0" to="1059337926#0" fromLane="0" toLane="0"/>

    <connection from="-1059337926#1" to="-1059337927" fromLane="0" toLane="0"/>
    <connection from="-1059337926#1" to="-1059337926#0" fromLane="0" toLane="0"/>
    <connection from="-1059337926#1" to="1059337926#1" fromLane="0" toLane="0"/>

    <connection from="-1059337927" to="320552026#2" fromLane="0" toLane="0"/>
    <connection from="-1059337927" to="-320552026#1" fromLane="0" toLane="0"/>
    <connection from="-1059337927" to="1059337927" fromLane="0" toLane="0"/>

    <connection from="-1059337928" to="-36347430#1" fromLane="0" toLane="0"/>
    <connection from="-1059337928" to="36347430#2" fromLane="0" toLane="0"/>
    <connection from="-1059337928" to="1059337928" fromLane="0" toLane="0"/>

    <connection from="-1059337929" to="-36347430#2" fromLane="0" toLane="0"/>
    <connection from="-1059337929" to="36347430#3" fromLane="0" toLane="0"/>
    <connection from="-1059337929" to="1059337929" fromLane="0" toLane="0"/>

    <connection from="-1059337930" to="-168175056#0" fromLane="0" toLane="0"/>
    <connection from="-1059337930" to="168175056#1" fromLane="0" toLane="0"/>
    <connection from="-1059337930" to="1059337930" fromLane="0" toLane="0"/>

    <connection from="-1059337931" to="1059337931" fromLane="0" toLane="0"/>

    <connection from="-1059337932" to="-173335642#2" fromLane="0" toLane="0"/>
    <connection from="-1059337932" to="173335642#3" fromLane="0" toLane="0"/>
    <connection from="-1059337932" to="1059337932" fromLane="0" toLane="0"/>

    <connection from="-1059337933" to="-1059337934#0" fromLane="0" toLane="0"/>
    <connection from="-1059337933" to="1059337934#1" fromLane="0" toLane="0"/>
    <connection from="-1059337933" to="1059337933" fromLane="0" toLane="0"/>

    <connection from="-1059337934#0" to="-477950738#0" fromLane="0" toLane="0"/>
    <connection from="-1059337934#0" to="477950738#1" fromLane="0" toLane="1"/>
    <connection from="-1059337934#0" to="1059337934#0" fromLane="0" toLane="0"/>

    <connection from="-1059337934#1" to="1059337933" fromLane="0" toLane="0"/>
    <connection from="-1059337934#1" to="-1059337934#0" fromLane="0" toLane="0"/>
    <connection from="-1059337934#1" to="1059337934#1" fromLane="0" toLane="0"/>

    <connection from="-1059337936" to="-319143204#2" fromLane="0" toLane="0"/>
    <connection from="-1059337936" to="319143204#3" fromLane="0" toLane="0"/>
    <connection from="-1059337936" to="1059337936" fromLane="0" toLane="0"/>

    <connection from="-1062357054" to="267492052#1" fromLane="0" toLane="0"/>
    <connection from="-1062357054" to="-267492052#0" fromLane="0" toLane="0"/>
    <connection from="-1062357054" to="1062357054" fromLane="0" toLane="0"/>

    <connection from="-1062357055" to="1062357055" fromLane="0" toLane="0"/>

    <connection from="-1062357056" to="-204041274#0" fromLane="0" toLane="0"/>
    <connection from="-1062357056" to="204041274#1" fromLane="0" toLane="0"/>
    <connection from="-1062357056" to="1062357056" fromLane="0" toLane="0"/>

    <connection from="-1062357075" to="1062357075" fromLane="0" toLane="0"/>

    <connection from="-1065595929#0" to="-33745923" fromLane="0" toLane="0"/>

    <connection from="-1065595929#1" to="-1065595929#0" fromLane="0" toLane="0"/>

    <connection from="-1065595929#2" to="-1065595929#1" fromLane="0" toLane="0"/>
    <connection from="-1065595929#2" to="622856289#0" fromLane="0" toLane="0"/>

    <connection from="-1065595929#3" to="-1065595929#2" fromLane="0" toLane="0"/>

    <connection from="-1065595929#4" to="-1065595929#3" fromLane="0" toLane="0"/>

    <connection from="-1065595930#0" to="-320552026#3" fromLane="0" toLane="0"/>
    <connection from="-1065595930#0" to="1065595930#0" fromLane="0" toLane="0"/>

    <connection from="-1065595930#1" to="-1065595930#0" fromLane="0" toLane="0"/>

    <connection from="-1065595933" to="702410520" fromLane="0" toLane="0"/>

    <connection from="-1065595956#0" to="1065595956#0" fromLane="0" toLane="0"/>

    <connection from="-1065595956#1" to="-1065595956#0" fromLane="0" toLane="0"/>
    <connection from="-1065595956#1" to="1065595955#0" fromLane="0" toLane="0"/>
    <connection from="-1065595956#1" to="1065595956#1" fromLane="0" toLane="0"/>

    <connection from="-1065595956#2" to="-1065595956#1" fromLane="0" toLane="0"/>
    <connection from="-1065595956#2" to="1065595956#2" fromLane="0" toLane="0"/>

    <connection from="-1065595956#3" to="-1065595956#2" fromLane="0" toLane="0"/>
    <connection from="-1065595956#3" to="1065595956#3" fromLane="0" toLane="0"/>

    <connection from="-1065809717" to="-33745922#3" fromLane="0" toLane="0"/>
    <connection from="-1065809717" to="33745922#4" fromLane="0" toLane="0"/>
    <connection from="-1065809717" to="1065809717" fromLane="0" toLane="0"/>

    <connection from="-1065809719" to="1065809719" fromLane="0" toLane="0"/>

    <connection from="-1065809723" to="33773976#2" fromLane="0" toLane="0"/>
    <connection from="-1065809723" to="-33773976#1" fromLane="0" toLane="0"/>
    <connection from="-1065809723" to="1065809723" fromLane="0" toLane="0"/>

    <connection from="-1102547370#0" to="166251889#6" fromLane="0" toLane="0"/>
    <connection from="-1102547370#0" to="-166251889#5" fromLane="0" toLane="0"/>
    <connection from="-1102547370#0" to="1102547370#0" fromLane="0" toLane="0"/>

    <connection from="-1102547370#1" to="-1102547370#0" fromLane="0" toLane="0"/>
    <connection from="-1102547370#1" to="-294789329" fromLane="0" toLane="0"/>
    <connection from="-1102547370#1" to="1102547370#1" fromLane="0" toLane="0"/>

    <connection from="-1102547370#2" to="-1102547370#1" fromLane="0" toLane="0"/>
    <connection from="-1102547370#2" to="-1102547371" fromLane="0" toLane="0"/>
    <connection from="-1102547370#2" to="1102547370#2" fromLane="0" toLane="0"/>

    <connection from="-1102547371" to="1134813071#1" fromLane="0" toLane="0"/>
    <connection from="-1102547371" to="-1134813071#0" fromLane="0" toLane="0"/>
    <connection from="-1102547371" to="1102547371" fromLane="0" toLane="0"/>

    <connection from="-1102547372" to="168175060#3" fromLane="0" toLane="0"/>
    <connection from="-1102547372" to="-168175060#2" fromLane="0" toLane="0"/>
    <connection from="-1102547372" to="1102547372" fromLane="0" toLane="0"/>

    <connection from="-1102547373" to="-304686183" fromLane="0" toLane="0" keepClear="0"/>

    <connection from="-1102547374" to="203985004#1" fromLane="0" toLane="0"/>
    <connection from="-1102547374" to="-203985004#0" fromLane="0" toLane="0"/>
    <connection from="-1102547374" to="1102547374" fromLane="0" toLane="0"/>

    <connection from="-1102547375" to="-232871729#0" fromLane="0" toLane="0"/>
    <connection from="-1102547375" to="232871721#0" fromLane="0" toLane="0"/>
    <connection from="-1102547375" to="232871729#1" fromLane="0" toLane="0"/>

    <connection from="-1102547377" to="-1000366825" fromLane="0" toLane="0" keepClear="0"/>

    <connection from="-1102547378" to="-266904732#0" fromLane="0" toLane="0"/>
    <connection from="-1102547378" to="-1102547377" fromLane="0" toLane="0"/>
    <connection from="-1102547378" to="266904732#1" fromLane="0" toLane="0"/>

    <connection from="-1114866190" to="1114866191#0" fromLane="0" toLane="0"/>
    <connection from="-1114866190" to="-212438249" fromLane="0" toLane="0"/>
    <connection from="-1114866190" to="-212438253#2" fromLane="0" toLane="0"/>
    <connection from="-1114866190" to="1114866190" fromLane="0" toLane="0"/>

    <connection from="-1114866191#0" to="-212438249" fromLane="0" toLane="0"/>
    <connection from="-1114866191#0" to="-212438253#2" fromLane="0" toLane="0"/>
    <connection from="-1114866191#0" to="1114866190" fromLane="0" toLane="0"/>
    <connection from="-1114866191#0" to="1114866191#0" fromLane="0" toLane="0"/>

    <connection from="-1114866191#1" to="-1114866191#0" fromLane="0" toLane="0"/>
    <connection from="-1114866191#1" to="212438243" fromLane="0" toLane="0"/>

    <connection from="-1125009822" to="-556205744#1" fromLane="0" toLane="0"/>
    <connection from="-1125009822" to="556205751" fromLane="0" toLane="0"/>
    <connection from="-1125009822" to="1156904873#0" fromLane="0" toLane="0"/>
    <connection from="-1125009822" to="1125009822" fromLane="0" toLane="0"/>

    <connection from="-1125009823#0" to="556205773#1" fromLane="0" toLane="0"/>
    <connection from="-1125009823#0" to="-556205773#0" fromLane="0" toLane="0"/>
    <connection from="-1125009823#0" to="1125009823#0" fromLane="0" toLane="0"/>

    <connection from="-1125009824" to="-1125009823#0" fromLane="0" toLane="0"/>
    <connection from="-1125009824" to="1125009823#1" fromLane="0" toLane="0"/>
    <connection from="-1125009824" to="1125009824" fromLane="0" toLane="0"/>

    <connection from="-1134813071#0" to="-173335640" fromLane="0" toLane="0"/>

    <connection from="-1134813071#1" to="-1134813071#0" fromLane="0" toLane="0"/>
    <connection from="-1134813071#1" to="1102547371" fromLane="0" toLane="0"/>

    <connection from="-1134813071#2" to="-745731584#1" fromLane="0" toLane="0"/>
    <connection from="-1134813071#2" to="-1134813071#1" fromLane="0" toLane="0"/>
    <connection from="-1134813071#2" to="-294789326#2" fromLane="0" toLane="0"/>
    <connection from="-1134813071#2" to="1134813071#2" fromLane="0" toLane="0"/>

    <connection from="-1134813071#3" to="-168175017" fromLane="0" toLane="0"/>
    <connection from="-1134813071#3" to="-168175060#3" fromLane="0" toLane="0"/>
    <connection from="-1134813071#3" to="-1134813071#2" fromLane="0" toLane="0"/>
    <connection from="-1134813071#3" to="1134813071#3" fromLane="0" toLane="0"/>

    <connection from="-1134813071#4" to="168175062" fromLane="0" toLane="0"/>
    <connection from="-1134813071#4" to="-1134813071#3" fromLane="0" toLane="0"/>
    <connection from="-1134813071#4" to="1134813071#4" fromLane="0" toLane="0"/>

    <connection from="-1155278325" to="-204041342#1" fromLane="0" toLane="0"/>
    <connection from="-1155278325" to="204041327#0" fromLane="0" toLane="0"/>
    <connection from="-1155278325" to="1155278325" fromLane="0" toLane="0"/>

    <connection from="-1156904873#0" to="1125009822" fromLane="0" toLane="0"/>
    <connection from="-1156904873#0" to="-556205744#1" fromLane="0" toLane="0"/>
    <connection from="-1156904873#0" to="556205751" fromLane="0" toLane="0"/>
    <connection from="-1156904873#0" to="1156904873#0" fromLane="0" toLane="0"/>

    <connection from="-1156904873#1" to="-1156904873#0" fromLane="0" toLane="0"/>
    <connection from="-1156904873#1" to="-556205753#9" fromLane="0" toLane="0"/>

    <connection from="-1156904874" to="-1156904877" fromLane="0" toLane="0"/>
    <connection from="-1156904874" to="556205771" fromLane="0" toLane="0"/>
    <connection from="-1156904874" to="-1156904873#1" fromLane="0" toLane="0"/>

    <connection from="-1156904875" to="1156904872" fromLane="0" toLane="0"/>
    <connection from="-1156904875" to="1156904875" fromLane="0" toLane="0"/>

    <connection from="-1156904876#0" to="1125009824" fromLane="0" toLane="0"/>
    <connection from="-1156904876#0" to="-1125009823#0" fromLane="0" toLane="0"/>
    <connection from="-1156904876#0" to="1125009823#1" fromLane="0" toLane="0"/>

    <connection from="-1156904876#1" to="-1156904876#0" fromLane="0" toLane="0"/>
    <connection from="-1156904876#1" to="556205776#1" fromLane="0" toLane="0"/>
    <connection from="-1156904876#1" to="1156904876#1" fromLane="0" toLane="0"/>

    <connection from="-1156904877" to="556205778#1" fromLane="0" toLane="0"/>
    <connection from="-1156904877" to="-1156904876#1" fromLane="0" toLane="0"/>
    <connection from="-1156904877" to="1156904876#2" fromLane="0" toLane="0"/>

    <connection from="-122166912#0" to="122166912#0" fromLane="0" toLane="0"/>

    <connection from="-122166912#1" to="267486480" fromLane="0" toLane="0"/>
    <connection from="-122166912#1" to="-122166912#0" fromLane="0" toLane="0"/>
    <connection from="-122166912#1" to="122166912#1" fromLane="0" toLane="0"/>

    <connection from="-1231119578" to="267519982#1" fromLane="0" toLane="0"/>
    <connection from="-1231119578" to="-267519982#0" fromLane="0" toLane="0"/>
    <connection from="-1231119578" to="1231119578" fromLane="0" toLane="0"/>

    <connection from="-127089283#0" to="127089293" fromLane="0" toLane="0"/>
    <connection from="-127089283#0" to="127089283#0" fromLane="0" toLane="0"/>

    <connection from="-127089283#1" to="-127089283#0" fromLane="0" toLane="0"/>
    <connection from="-127089283#1" to="-237991823" fromLane="0" toLane="0"/>

    <connection from="-127089283#2" to="556205744#0" fromLane="0" toLane="0"/>
    <connection from="-127089283#2" to="-127089283#1" fromLane="0" toLane="0"/>
    <connection from="-127089283#2" to="127089283#2" fromLane="0" toLane="0"/>

    <connection from="-127089287#0" to="683306153#0" fromLane="0" toLane="0"/>
    <connection from="-127089287#0" to="-556205773#1" fromLane="0" toLane="0"/>
    <connection from="-127089287#0" to="-168175027#7" fromLane="0" toLane="0"/>
    <connection from="-127089287#0" to="127089287#0" fromLane="0" toLane="0"/>

    <connection from="-127089287#1" to="-168175059#3" fromLane="0" toLane="0"/>
    <connection from="-127089287#1" to="-127089287#0" fromLane="0" toLane="0"/>
    <connection from="-127089287#1" to="127089287#1" fromLane="0" toLane="0"/>

    <connection from="-127089287#2" to="168175042#0" fromLane="0" toLane="0"/>
    <connection from="-127089287#2" to="-127089287#1" fromLane="0" toLane="0"/>
    <connection from="-127089287#2" to="127089287#2" fromLane="0" toLane="0"/>

    <connection from="-127089287#3" to="-127089287#2" fromLane="0" toLane="0"/>
    <connection from="-127089287#3" to="-168175019#1" fromLane="0" toLane="0"/>
    <connection from="-127089287#3" to="127089287#3" fromLane="0" toLane="0"/>

    <connection from="-127089287#4" to="212438233" fromLane="0" toLane="0"/>
    <connection from="-127089287#4" to="-127089287#3" fromLane="0" toLane="0"/>

    <connection from="-127089287#5" to="-127089287#4" fromLane="0" toLane="0"/>
    <connection from="-127089287#5" to="981912238" fromLane="0" toLane="0"/>
    <connection from="-127089287#5" to="127089287#5" fromLane="0" toLane="0"/>

    <connection from="-127089287#6" to="-127089287#5" fromLane="0" toLane="0"/>
    <connection from="-127089287#6" to="-872251322" fromLane="0" toLane="0"/>
    <connection from="-127089287#6" to="127089287#6" fromLane="0" toLane="0"/>

    <connection from="-127089287#7" to="-127089287#6" fromLane="0" toLane="0"/>
    <connection from="-127089287#7" to="-226623159#4" fromLane="0" toLane="0"/>
    <connection from="-127089287#7" to="127089287#7" fromLane="0" toLane="0"/>

    <connection from="-143984303" to="-143984305" fromLane="0" toLane="0"/>

    <connection from="-143984305" to="204041308#0" fromLane="0" toLane="0"/>
    <connection from="-143984305" to="-266924928#6" fromLane="0" toLane="0"/>
    <connection from="-143984305" to="-204041336" fromLane="0" toLane="0"/>
    <connection from="-143984305" to="204041304" fromLane="0" toLane="0"/>

    <connection from="-143984345" to="1102547376" fromLane="0" toLane="0" keepClear="0"/>

    <connection from="-143984394" to="-458678307#0" fromLane="0" toLane="0"/>
    <connection from="-143984394" to="-266924934#1" fromLane="0" toLane="0"/>
    <connection from="-143984394" to="458678307#1" fromLane="0" toLane="0"/>

    <connection from="-166220361#0" to="1168473340" fromLane="0" toLane="0"/>
    <connection from="-166220361#0" to="166220361#0" fromLane="0" toLane="0"/>

    <connection from="-166251889#0" to="173335642#4" fromLane="0" toLane="0"/>
    <connection from="-166251889#0" to="-173335642#3" fromLane="0" toLane="0"/>
    <connection from="-166251889#0" to="166251889#0" fromLane="0" toLane="0"/>

    <connection from="-166251889#1" to="-168175063#2" fromLane="0" toLane="0"/>
    <connection from="-166251889#1" to="-166251889#0" fromLane="0" toLane="0"/>
    <connection from="-166251889#1" to="166251889#1" fromLane="0" toLane="0"/>

    <connection from="-166251889#2" to="-166251889#1" fromLane="0" toLane="0"/>
    <connection from="-166251889#2" to="294789326#0" fromLane="0" toLane="0"/>
    <connection from="-166251889#2" to="166251889#2" fromLane="0" toLane="0"/>

    <connection from="-166251889#3" to="-294789327" fromLane="0" toLane="0"/>
    <connection from="-166251889#3" to="-166251889#2" fromLane="0" toLane="0"/>
    <connection from="-166251889#3" to="166251889#3" fromLane="0" toLane="0"/>

    <connection from="-166251889#4" to="-212457494#2" fromLane="0" toLane="0"/>
    <connection from="-166251889#4" to="-166251889#3" fromLane="0" toLane="0"/>
    <connection from="-166251889#4" to="166251889#4" fromLane="0" toLane="0"/>

    <connection from="-166251889#5" to="212438285#0" fromLane="0" toLane="0"/>
    <connection from="-166251889#5" to="-166251889#4" fromLane="0" toLane="0"/>

    <connection from="-168175012#0" to="-949348438#1" fromLane="0" toLane="0"/>
    <connection from="-168175012#0" to="-304686423" fromLane="0" toLane="0"/>
    <connection from="-168175012#0" to="1065809713" fromLane="0" toLane="0"/>

    <connection from="-168175012#1" to="-168175012#0" fromLane="0" toLane="0"/>
    <connection from="-168175012#1" to="36347430#0" fromLane="0" toLane="0"/>
    <connection from="-168175012#1" to="168175012#1" fromLane="0" toLane="0"/>

    <connection from="-168175012#2" to="-168175012#1" fromLane="0" toLane="0"/>

    <connection from="-168175014" to="-168175056#1" fromLane="0" toLane="0"/>
    <connection from="-168175014" to="168175056#2" fromLane="0" toLane="0"/>
    <connection from="-168175014" to="168175014" fromLane="0" toLane="0"/>

    <connection from="-168175015" to="168175015" fromLane="0" toLane="0"/>

    <connection from="-168175017" to="-168175062" fromLane="0" toLane="0"/>
    <connection from="-168175017" to="168175027#0" fromLane="0" toLane="0"/>
    <connection from="-168175017" to="168175017" fromLane="0" toLane="0"/>

    <connection from="-168175018" to="168175018" fromLane="0" toLane="0"/>

    <connection from="-168175019#0" to="168175027#6" fromLane="0" toLane="0"/>
    <connection from="-168175019#0" to="-168175028#1" fromLane="0" toLane="0"/>
    <connection from="-168175019#0" to="-168175058" fromLane="0" toLane="0"/>
    <connection from="-168175019#0" to="-168175027#5" fromLane="0" toLane="0"/>
    <connection from="-168175019#0" to="168175019#0" fromLane="0" toLane="0"/>

    <connection from="-168175019#1" to="-168175019#0" fromLane="0" toLane="0"/>
    <connection from="-168175019#1" to="872251321" fromLane="0" toLane="0"/>
    <connection from="-168175019#1" to="168175019#1" fromLane="0" toLane="0"/>

    <connection from="-168175020#0" to="168175059#3" fromLane="0" toLane="0"/>
    <connection from="-168175020#0" to="-168175059#2" fromLane="0" toLane="0"/>
    <connection from="-168175020#0" to="168175020#0" fromLane="0" toLane="0"/>

    <connection from="-168175020#1" to="-168175038" fromLane="0" toLane="0"/>
    <connection from="-168175020#1" to="-168175020#0" fromLane="0" toLane="0"/>
    <connection from="-168175020#1" to="168175020#1" fromLane="0" toLane="0"/>

    <connection from="-168175020#2" to="-168175020#1" fromLane="0" toLane="0"/>
    <connection from="-168175020#2" to="-168175026" fromLane="0" toLane="0"/>
    <connection from="-168175020#2" to="168175020#2" fromLane="0" toLane="0"/>

    <connection from="-168175021#0" to="-168175021#1" fromLane="0" toLane="0"/>

    <connection from="-168175021#1" to="-168175021#0" fromLane="0" toLane="0"/>
    <connection from="-168175021#1" to="-168175055#2" fromLane="0" toLane="0"/>
    <connection from="-168175021#1" to="168175021#1" fromLane="0" toLane="0"/>

    <connection from="-168175023#0" to="-168175027#0" fromLane="0" toLane="0"/>
    <connection from="-168175023#0" to="168175027#1" fromLane="0" toLane="0"/>
    <connection from="-168175023#0" to="168175023#0" fromLane="0" toLane="0"/>

    <connection from="-168175023#1" to="-168175023#0" fromLane="0" toLane="0"/>
    <connection from="-168175023#1" to="-168175065" fromLane="0" toLane="0"/>
    <connection from="-168175023#1" to="168175023#1" fromLane="0" toLane="0"/>

    <connection from="-168175024#0" to="168175024#0" fromLane="0" toLane="0"/>

    <connection from="-168175024#1" to="-168175020#2" fromLane="0" toLane="0"/>
    <connection from="-168175024#1" to="-168175024#0" fromLane="0" toLane="0"/>
    <connection from="-168175024#1" to="168175024#1" fromLane="0" toLane="0"/>

    <connection from="-168175024#2" to="168175038" fromLane="0" toLane="0"/>
    <connection from="-168175024#2" to="-168175024#1" fromLane="0" toLane="0"/>
    <connection from="-168175024#2" to="168175024#2" fromLane="0" toLane="0"/>

    <connection from="-168175026" to="168175026" fromLane="0" toLane="0"/>

    <connection from="-168175027#0" to="168175017" fromLane="0" toLane="0"/>
    <connection from="-168175027#0" to="-168175062" fromLane="0" toLane="0"/>
    <connection from="-168175027#0" to="168175027#0" fromLane="0" toLane="0"/>

    <connection from="-168175027#1" to="168175023#0" fromLane="0" toLane="0"/>
    <connection from="-168175027#1" to="-168175027#0" fromLane="0" toLane="0"/>
    <connection from="-168175027#1" to="168175027#1" fromLane="0" toLane="0"/>

    <connection from="-168175027#2" to="-168175027#1" fromLane="0" toLane="0"/>
    <connection from="-168175027#2" to="-168175014" fromLane="0" toLane="0"/>
    <connection from="-168175027#2" to="168175027#2" fromLane="0" toLane="0"/>

    <connection from="-168175027#3" to="-168175027#2" fromLane="0" toLane="0"/>
    <connection from="-168175027#3" to="-168175048" fromLane="0" toLane="0"/>
    <connection from="-168175027#3" to="168175027#3" fromLane="0" toLane="0"/>

    <connection from="-168175027#4" to="-168175027#3" fromLane="0" toLane="0"/>
    <connection from="-168175027#4" to="168175036#0" fromLane="0" toLane="0"/>
    <connection from="-168175027#4" to="168175027#4" fromLane="0" toLane="0"/>

    <connection from="-168175027#5" to="-168175023#1" fromLane="0" toLane="0"/>
    <connection from="-168175027#5" to="-168175027#4" fromLane="0" toLane="0"/>
    <connection from="-168175027#5" to="168175027#5" fromLane="0" toLane="0"/>

    <connection from="-168175027#6" to="-168175028#1" fromLane="0" toLane="0"/>
    <connection from="-168175027#6" to="-168175058" fromLane="0" toLane="0"/>
    <connection from="-168175027#6" to="-168175027#5" fromLane="0" toLane="0"/>
    <connection from="-168175027#6" to="168175019#0" fromLane="0" toLane="0"/>
    <connection from="-168175027#6" to="168175027#6" fromLane="0" toLane="0"/>

    <connection from="-168175027#7" to="-168175027#6" fromLane="0" toLane="0"/>
    <connection from="-168175027#7" to="839687988#0" fromLane="0" toLane="0"/>

    <connection from="-168175028#0" to="556205774#5" fromLane="0" toLane="0" visibility="9.00"/>

    <connection from="-168175028#1" to="-1125009824" fromLane="0" toLane="0"/>
    <connection from="-168175028#1" to="-168175028#0" fromLane="0" toLane="0"/>
    <connection from="-168175028#1" to="168175028#1" fromLane="0" toLane="0"/>

    <connection from="-168175029" to="168175029" fromLane="0" toLane="0"/>

    <connection from="-168175032#0" to="-1065595933" fromLane="0" toLane="0"/>
    <connection from="-168175032#0" to="-741315023" fromLane="0" toLane="0"/>
    <connection from="-168175032#0" to="168175032#0" fromLane="0" toLane="0"/>

    <connection from="-168175032#1" to="-168175032#0" fromLane="0" toLane="0"/>

    <connection from="-168175033" to="168175063#2" fromLane="0" toLane="0"/>
    <connection from="-168175033" to="-168175063#1" fromLane="0" toLane="0"/>
    <connection from="-168175033" to="168175033" fromLane="0" toLane="0"/>

    <connection from="-168175034#0" to="168175034#0" fromLane="0" toLane="0"/>

    <connection from="-168175034#1" to="-168175034#0" fromLane="0" toLane="0"/>
    <connection from="-168175034#1" to="168175035" fromLane="0" toLane="0"/>
    <connection from="-168175034#1" to="168175034#1" fromLane="0" toLane="0"/>

    <connection from="-168175034#2" to="-168175034#1" fromLane="0" toLane="0"/>
    <connection from="-168175034#2" to="-168175035" fromLane="0" toLane="0"/>
    <connection from="-168175034#2" to="168175034#2" fromLane="0" toLane="0"/>

    <connection from="-168175034#3" to="-168175034#2" fromLane="0" toLane="0"/>
    <connection from="-168175034#3" to="-168175067#3" fromLane="0" toLane="0"/>
    <connection from="-168175034#3" to="168175034#3" fromLane="0" toLane="0"/>

    <connection from="-168175034#4" to="-168175034#3" fromLane="0" toLane="0"/>
    <connection from="-168175034#4" to="212438241" fromLane="0" toLane="0"/>
    <connection from="-168175034#4" to="168175034#4" fromLane="0" toLane="0"/>

    <connection from="-168175035" to="168175034#1" fromLane="0" toLane="0"/>
    <connection from="-168175035" to="-168175034#0" fromLane="0" toLane="0"/>
    <connection from="-168175035" to="168175035" fromLane="0" toLane="0"/>

    <connection from="-168175036#0" to="168175027#4" fromLane="0" toLane="0"/>
    <connection from="-168175036#0" to="-168175027#3" fromLane="0" toLane="0"/>
    <connection from="-168175036#0" to="168175036#0" fromLane="0" toLane="0"/>

    <connection from="-168175036#1" to="-168175015" fromLane="0" toLane="0"/>
    <connection from="-168175036#1" to="-168175036#0" fromLane="0" toLane="0"/>
    <connection from="-168175036#1" to="168175036#1" fromLane="0" toLane="0"/>

    <connection from="-168175037" to="168175037" fromLane="0" toLane="0"/>

    <connection from="-168175038" to="-168175024#1" fromLane="0" toLane="0"/>
    <connection from="-168175038" to="168175024#2" fromLane="0" toLane="0"/>
    <connection from="-168175038" to="168175038" fromLane="0" toLane="0"/>

    <connection from="-168175041" to="168175044#0" fromLane="0" toLane="0"/>
    <connection from="-168175041" to="-168175018" fromLane="0" toLane="0"/>
    <connection from="-168175041" to="168175041" fromLane="0" toLane="0"/>

    <connection from="-168175042#0" to="-127089287#1" fromLane="0" toLane="0"/>
    <connection from="-168175042#0" to="127089287#2" fromLane="0" toLane="0"/>
    <connection from="-168175042#0" to="168175042#0" fromLane="0" toLane="0"/>

    <connection from="-168175042#1" to="981912237" fromLane="0" toLane="0"/>
    <connection from="-168175042#1" to="-168175042#0" fromLane="0" toLane="0"/>

    <connection from="-168175042#2" to="168175059#0" fromLane="0" toLane="0"/>
    <connection from="-168175042#2" to="-168175042#1" fromLane="0" toLane="0"/>
    <connection from="-168175042#2" to="168175042#2" fromLane="0" toLane="0"/>

    <connection from="-168175042#3" to="-168175042#2" fromLane="0" toLane="0"/>
    <connection from="-168175042#3" to="168175042#3" fromLane="0" toLane="0"/>

    <connection from="-168175042#4" to="168175040" fromLane="0" toLane="0"/>
    <connection from="-168175042#4" to="-168175042#3" fromLane="0" toLane="0"/>
    <connection from="-168175042#4" to="168175042#4" fromLane="0" toLane="0"/>

    <connection from="-168175043#0" to="168175063#1" fromLane="0" toLane="0"/>
    <connection from="-168175043#0" to="-383406510#1" fromLane="0" toLane="0"/>
    <connection from="-168175043#0" to="-168175063#0" fromLane="0" toLane="0"/>
