<?xml version="1.0" encoding="UTF-8"?>

<!-- generated on 2025-04-07 23:59:09 by Eclipse SUMO netconvert Version 1.19.0
<configuration xmlns:xsi="http://www.w3.org/2001/XMLSchema-instance" xsi:noNamespaceSchemaLocation="http://sumo.dlr.de/xsd/netconvertConfiguration.xsd">

    <input>
        <sumo-net-file value="souppes_sur_loing/souppes_sur_loing.net.xml"/>
    </input>

    <output>
        <plain-output-prefix value="souppes_sur_loing/souppes_sur_loing"/>
    </output>

    <processing>
        <geometry.min-radius.fix.railways value="false"/>
        <geometry.max-grade.fix value="false"/>
        <offset.disable-normalization value="true"/>
        <lefthand value="0"/>
    </processing>

    <tls_building>
        <tls.ignore-internal-junction-jam value="1"/>
    </tls_building>

    <junctions>
        <no-turnarounds value="true"/>
        <junctions.corner-detail value="5"/>
        <junctions.limit-turn-speed value="5.50"/>
        <rectangular-lane-cut value="0"/>
    </junctions>

    <pedestrian>
        <walkingareas value="0"/>
    </pedestrian>

</configuration>
-->

<nodes version="1.16" xmlns:xsi="http://www.w3.org/2001/XMLSchema-instance" xsi:noNamespaceSchemaLocation="http://sumo.dlr.de/xsd/nodes_file.xsd">
    <location netOffset="-478839.44,-5333302.76" convBoundary="0.00,0.00,6880.59,7898.66" origBoundary="2.697164,48.068781,2.812794,48.269237" projParameter="+proj=utm +zone=31 +ellps=WGS84 +datum=WGS84 +units=m +no_defs"/>

    <node id="10089080215" x="3709.10" y="4806.61" type="priority"/>
    <node id="10089084733" x="3822.83" y="4046.04" type="priority"/>
    <node id="10089084734" x="3489.12" y="3980.01" type="priority"/>
    <node id="10089084741" x="3787.46" y="4088.10" type="right_before_left"/>
    <node id="10089084747" x="3801.31" y="3773.19" type="right_before_left"/>
    <node id="10089084866" x="727.76" y="2099.28" type="right_before_left"/>
    <node id="10287742934" x="3301.66" y="3002.38" type="priority"/>
    <node id="10287742935" x="3251.74" y="2999.95" type="priority"/>
    <node id="10758538503" x="3299.66" y="3011.45" type="priority"/>
    <node id="10866930202" x="4161.93" y="3195.10" type="priority"/>
    <node id="10866945105" x="4172.99" y="3189.96" type="priority"/>
    <node id="10866945106" x="4172.16" y="3183.08" type="priority"/>
    <node id="10866945108" x="4166.90" y="3179.29" type="priority"/>
    <node id="12277424583" x="195.07" y="4509.55" type="dead_end"/>
    <node id="12277424584" x="198.05" y="4511.39" type="dead_end"/>
    <node id="123023" x="3979.57" y="7541.74" type="dead_end"/>
    <node id="1407328580" x="3635.59" y="2237.91" type="priority"/>
    <node id="1407328597" x="3712.68" y="2315.59" type="priority"/>
    <node id="1407328599" x="3720.23" y="2570.72" type="priority"/>
    <node id="1407328657" x="1916.15" y="3044.15" type="priority"/>
    <node id="1407328660" x="2473.47" y="3081.61" type="priority"/>
    <node id="1407328680" x="2635.59" y="3084.34" type="priority"/>
    <node id="1407328692" x="2891.21" y="3113.76" type="priority"/>
    <node id="1407328694" x="3104.19" y="3143.26" type="priority"/>
    <node id="1407328710" x="3159.70" y="3155.03" type="priority"/>
    <node id="1407328727" x="3728.41" y="3229.47" type="priority"/>
    <node id="1407328768" x="1490.43" y="3460.88" type="priority"/>
    <node id="1407328781" x="1509.69" y="3467.65" type="priority"/>
    <node id="147019571#0-AddedOnRampNode" x="3846.97" y="2815.43" type="priority"/>
    <node id="1575632247" x="855.19" y="2576.41" type="priority"/>
    <node id="1575632251" x="855.73" y="2588.81" type="priority"/>
    <node id="1575632281" x="771.61" y="2778.38" type="priority"/>
    <node id="1575632282" x="758.27" y="2807.69" type="priority"/>
    <node id="1575632283" x="742.60" y="2840.20" type="priority"/>
    <node id="1575632284" x="734.98" y="2852.01" type="priority"/>
    <node id="1575632314" x="627.25" y="2982.10" type="dead_end" fringe="inner">
        <param key="buffer_stop" value="true"/>
    </node>
    <node id="1575632316" x="640.49" y="2996.10" type="dead_end" fringe="inner">
        <param key="buffer_stop" value="true"/>
    </node>
    <node id="1575632347" x="707.52" y="3104.59" type="priority"/>
    <node id="1575632362" x="404.61" y="3280.33" type="dead_end"/>
    <node id="1776915524" x="4191.69" y="3186.86" type="priority"/>
    <node id="1776915526" x="2746.96" y="3749.18" type="priority"/>
    <node id="1776915550" x="4479.05" y="3000.75" type="priority"/>
    <node id="1776915558" x="4035.05" y="3215.16" type="priority"/>
    <node id="1776915618" x="5969.33" y="2967.88" type="priority"/>
    <node id="1776915646" x="2360.46" y="3618.92" type="priority"/>
    <node id="1776915652" x="2986.17" y="4120.73" type="priority"/>
    <node id="1776915654" x="3258.38" y="4043.49" type="priority"/>
    <node id="1776915666" x="4141.05" y="3189.00" type="priority"/>
    <node id="1776915713" x="4520.68" y="2986.51" type="priority"/>
    <node id="1777134525" x="6880.59" y="4851.29" type="priority"/>
    <node id="1777134893" x="4404.28" y="5213.90" type="priority"/>
    <node id="1777135684" x="4718.84" y="5476.83" type="priority"/>
    <node id="1777135766" x="3065.05" y="4154.03" type="priority"/>
    <node id="1777135940" x="3120.87" y="4269.85" type="priority"/>
    <node id="1777136076" x="3292.59" y="4603.91" type="priority"/>
    <node id="1794535914" x="1358.30" y="2851.26" type="priority"/>
    <node id="1794535924" x="1556.19" y="3065.77" type="rail_crossing"/>
    <node id="1794535936" x="510.99" y="3106.92" type="priority"/>
    <node id="1794535945" x="1514.81" y="3165.90" type="priority"/>
    <node id="1794535947" x="1380.33" y="3307.55" type="priority"/>
    <node id="1794535952" x="460.45" y="3183.84" type="dead_end" fringe="inner">
        <param key="buffer_stop" value="true"/>
    </node>
    <node id="1794535961" x="851.50" y="2517.13" type="priority"/>
    <node id="1794535968" x="1351.98" y="2866.39" type="rail_crossing"/>
    <node id="1794535973" x="888.22" y="2423.49" type="dead_end" fringe="inner">
        <param key="buffer_stop" value="true"/>
    </node>
    <node id="1794537497" x="1530.22" y="3151.04" type="priority"/>
    <node id="1794537500" x="1546.51" y="3134.29" type="priority"/>
    <node id="1794680395" x="1504.20" y="2918.30" type="priority"/>
    <node id="1794680397" x="1486.58" y="3176.49" type="priority"/>
    <node id="1794680416" x="2680.89" y="2854.78" type="right_before_left"/>
    <node id="1794680423" x="1371.21" y="2821.18" type="priority"/>
    <node id="1794680424" x="2484.68" y="2761.36" type="priority"/>
    <node id="1794680428" x="2580.80" y="2608.60" type="priority"/>
    <node id="1794680452" x="2562.87" y="2679.49" type="priority"/>
    <node id="1794680466" x="2645.30" y="2822.30" type="priority"/>
    <node id="1794680468" x="1732.49" y="2047.57" type="priority"/>
    <node id="1794680469" x="1531.34" y="3110.04" type="priority"/>
    <node id="1794680475" x="2907.63" y="3777.30" type="priority"/>
    <node id="1794680477" x="2681.40" y="2690.50" type="priority"/>
    <node id="1794680482" x="1432.91" y="2974.45" type="priority"/>
    <node id="1794680484" x="1410.63" y="2873.15" type="priority"/>
    <node id="1794680492" x="3038.22" y="3485.23" type="priority"/>
    <node id="1794680493" x="2371.45" y="2615.69" type="priority"/>
    <node id="1794680501" x="1663.92" y="2126.95" type="priority"/>
    <node id="1794680503" x="2399.89" y="2412.56" type="priority"/>
    <node id="1794680508" x="3197.46" y="3913.81" type="priority"/>
    <node id="1794680512" x="2539.10" y="2817.16" type="priority"/>
    <node id="1794680515" x="3362.13" y="3983.50" type="priority"/>
    <node id="1794680516" x="2273.86" y="2574.10" type="priority"/>
    <node id="1794680530" x="2309.18" y="2431.36" type="priority"/>
    <node id="1794680537" x="2615.23" y="2899.90" type="priority"/>
    <node id="1794680540" x="2950.57" y="3636.13" type="priority"/>
    <node id="1794680541" x="2358.66" y="2527.36" type="priority"/>
    <node id="1794680542" x="3155.42" y="3859.69" type="right_before_left"/>
    <node id="1794680543" x="3331.52" y="3987.29" type="priority"/>
    <node id="1794680554" x="2585.50" y="2583.93" type="priority"/>
    <node id="1794680564" x="1771.40" y="2071.31" type="priority"/>
    <node id="1794680577" x="2353.42" y="2466.62" type="priority"/>
    <node id="1794680597" x="2778.73" y="2782.15" type="right_before_left"/>
    <node id="1794680601" x="3079.49" y="3970.05" type="priority"/>
    <node id="1794680603" x="2352.32" y="2586.01" type="priority"/>
    <node id="1794680616" x="3574.15" y="3216.40" type="priority"/>
    <node id="1794680634" x="1395.38" y="3257.78" type="priority"/>
    <node id="1794680635" x="1932.80" y="3216.07" type="right_before_left"/>
    <node id="1794680659" x="3071.15" y="3921.88" type="priority"/>
    <node id="1794680682" x="3001.68" y="3911.05" type="priority"/>
    <node id="1794680688" x="2182.12" y="3117.32" type="priority"/>
    <node id="1794680713" x="3000.43" y="3892.18" type="priority"/>
    <node id="1794680718" x="2407.10" y="2593.18" type="priority"/>
    <node id="1794680719" x="1386.82" y="3246.35" type="priority"/>
    <node id="1794680721" x="3410.25" y="3619.77" type="right_before_left"/>
    <node id="1794680724" x="2544.74" y="2557.62" type="priority" fringe="inner">
        <param key="buffer_stop" value="true"/>
    </node>
    <node id="1794680725" x="2753.98" y="2733.19" type="priority"/>
    <node id="1794680727" x="2522.51" y="2528.67" type="priority"/>
    <node id="1794680733" x="2645.90" y="2644.26" type="priority"/>
    <node id="1794680735" x="2472.58" y="2566.00" type="priority"/>
    <node id="1794680740" x="2672.71" y="4342.22" type="priority"/>
    <node id="1794680743" x="2482.87" y="2663.39" type="priority"/>
    <node id="1794680747" x="2971.90" y="4137.54" type="priority"/>
    <node id="1794680749" x="1462.21" y="2850.90" type="priority"/>
    <node id="1794680751" x="1347.05" y="2878.22" type="priority"/>
    <node id="1794680763" x="2659.56" y="3655.75" type="priority"/>
    <node id="1794680764" x="2760.68" y="2746.95" type="right_before_left"/>
    <node id="1794680768" x="1200.08" y="3041.06" type="priority"/>
    <node id="1794680771" x="1444.38" y="2888.33" type="priority"/>
    <node id="1794680784" x="1366.34" y="2922.79" type="right_before_left"/>
    <node id="1794680789" x="3071.24" y="3959.88" type="priority"/>
    <node id="1794680791" x="2783.26" y="2790.93" type="priority"/>
    <node id="1794680792" x="2642.45" y="2646.60" type="priority"/>
    <node id="1794680793" x="2513.91" y="2736.59" type="priority"/>
    <node id="1794680795" x="2432.87" y="2715.23" type="priority"/>
    <node id="1794680798" x="1486.67" y="3180.73" type="priority"/>
    <node id="1794680803" x="2961.53" y="3330.36" type="dead_end"/>
    <node id="1794680813" x="2709.72" y="2704.59" type="priority"/>
    <node id="1794680814" x="3490.26" y="3639.20" type="right_before_left"/>
    <node id="1794680831" x="1524.29" y="3106.24" type="priority"/>
    <node id="1794680836" x="2845.26" y="3750.68" type="priority"/>
    <node id="1794680838" x="2986.22" y="3339.79" type="dead_end"/>
    <node id="1794680853" x="3333.99" y="3969.84" type="priority"/>
    <node id="1794680858" x="2547.99" y="2639.11" type="priority"/>
    <node id="1794680860" x="2681.36" y="2823.49" type="right_before_left"/>
    <node id="1794680863" x="1262.01" y="3094.73" type="priority"/>
    <node id="1841717987" x="3822.94" y="4036.40" type="priority"/>
    <node id="2072671122" x="1594.32" y="3183.81" type="priority"/>
    <node id="2072671125" x="1611.51" y="3195.45" type="priority"/>
    <node id="2072671129" x="1609.87" y="3198.40" type="priority"/>
    <node id="2072671133" x="1597.42" y="3226.96" type="priority"/>
    <node id="2078038598" x="4299.10" y="3895.77" type="priority"/>
    <node id="2078038607" x="4516.86" y="3669.34" type="priority"/>
    <node id="2078038612" x="4281.83" y="3471.26" type="priority"/>
    <node id="2078038617" x="4453.84" y="3934.27" type="priority"/>
    <node id="2078038634" x="4393.08" y="4113.17" type="priority"/>
    <node id="2078038647" x="4288.74" y="3869.23" type="priority"/>
    <node id="2078040977" x="3923.40" y="2811.56" type="priority"/>
    <node id="2078040981" x="3939.26" y="2518.08" type="priority"/>
    <node id="2078041005" x="4158.06" y="3169.90" type="priority"/>
    <node id="2113579056" x="2475.28" y="5842.15" type="priority"/>
    <node id="2132913413" x="1846.23" y="668.75" type="priority"/>
    <node id="2139890309" x="805.38" y="3255.56" type="priority"/>
    <node id="2139890388" x="1001.28" y="3497.25" type="priority"/>
    <node id="2139975852" x="1704.56" y="1131.77" type="right_before_left"/>
    <node id="2139975864" x="1706.29" y="1135.49" type="priority"/>
    <node id="2139975877" x="1584.43" y="1265.96" type="priority"/>
    <node id="2139975890" x="1547.36" y="1355.24" type="right_before_left"/>
    <node id="2139975893" x="1531.45" y="1369.98" type="priority"/>
    <node id="2139975896" x="1532.17" y="1391.07" type="dead_end"/>
    <node id="2139975923" x="1493.26" y="1477.60" type="priority"/>
    <node id="2139975944" x="1441.14" y="1688.69" type="priority"/>
    <node id="2139976002" x="1503.47" y="2062.15" type="priority"/>
    <node id="2140027962" x="1945.67" y="387.78" type="priority"/>
    <node id="2140527690" x="764.52" y="2772.49" type="priority"/>
    <node id="2140527709" x="770.98" y="2895.43" type="priority"/>
    <node id="2140527718" x="596.21" y="2922.06" type="priority"/>
    <node id="2140527727" x="615.84" y="2977.09" type="priority"/>
    <node id="2140527732" x="570.60" y="3033.52" type="priority"/>
    <node id="2140527737" x="674.12" y="3071.10" type="priority"/>
    <node id="2140527747" x="709.76" y="3108.39" type="priority"/>
    <node id="2140527749" x="549.62" y="3111.00" type="priority"/>
    <node id="2140527754" x="577.65" y="3143.41" type="right_before_left"/>
    <node id="2140527781" x="794.74" y="3239.01" type="priority"/>
    <node id="2140527785" x="785.18" y="3246.38" type="right_before_left"/>
    <node id="2140527796" x="746.14" y="3281.77" type="right_before_left"/>
    <node id="2140527807" x="715.66" y="3296.97" type="right_before_left"/>
    <node id="2140527823" x="692.82" y="3353.94" type="right_before_left"/>
    <node id="2140527827" x="662.52" y="3372.30" type="right_before_left"/>
    <node id="2140527980" x="609.83" y="3439.57" type="priority"/>
    <node id="2140528479" x="171.55" y="3632.56" type="priority"/>
    <node id="2140528606" x="734.88" y="3673.49" type="priority"/>
    <node id="2140528868" x="337.12" y="3802.04" type="right_before_left"/>
    <node id="2140528888" x="311.54" y="3822.48" type="priority"/>
    <node id="2140530296" x="112.47" y="5179.17" type="priority"/>
    <node id="2141678542" x="1088.22" y="3567.95" type="priority"/>
    <node id="2141678562" x="904.85" y="3619.18" type="priority"/>
    <node id="2141678614" x="618.02" y="3925.04" type="priority"/>
    <node id="2141678699" x="420.61" y="4276.69" type="dead_end"/>
    <node id="2141678700" x="423.93" y="4279.97" type="dead_end"/>
    <node id="2141678722" x="178.06" y="4500.81" type="priority"/>
    <node id="2141678725" x="215.15" y="4520.84" type="priority"/>
    <node id="2141678845" x="334.58" y="4748.15" type="priority"/>
    <node id="2218998451" x="6091.39" y="2995.72" type="priority"/>
    <node id="2222874057" x="4398.17" y="706.70" type="priority"/>
    <node id="2222874104" x="3769.92" y="1020.16" type="priority"/>
    <node id="2222874159" x="3906.59" y="1132.90" type="priority"/>
    <node id="2222874193" x="3234.53" y="1204.44" type="priority"/>
    <node id="2222874244" x="3364.88" y="1324.30" type="priority"/>
    <node id="2222874268" x="4538.84" y="1400.90" type="right_before_left"/>
    <node id="2222874333" x="3551.36" y="1469.64" type="priority"/>
    <node id="2222874354" x="3547.80" y="1659.55" type="priority"/>
    <node id="2222874359" x="3499.88" y="1734.25" type="priority"/>
    <node id="2222874390" x="3531.19" y="1811.55" type="priority"/>
    <node id="2222874403" x="2676.63" y="1874.08" type="priority"/>
    <node id="2222874410" x="3610.36" y="1871.89" type="priority"/>
    <node id="2222874545" x="3669.42" y="2189.86" type="priority"/>
    <node id="2222874560" x="3658.29" y="2209.73" type="priority"/>
    <node id="2222874566" x="2542.23" y="2723.25" type="priority"/>
    <node id="2222874581" x="2575.83" y="2765.55" type="priority"/>
    <node id="2222874583" x="2077.36" y="2898.89" type="priority"/>
    <node id="2222874589" x="2027.21" y="3010.61" type="priority"/>
    <node id="2222874675" x="3688.93" y="4797.29" type="priority"/>
    <node id="2222874709" x="4044.25" y="5025.10" type="priority"/>
    <node id="2222874711" x="4061.12" y="5039.64" type="priority"/>
    <node id="2222874736" x="4252.33" y="5106.77" type="priority"/>
    <node id="2222874798" x="4840.21" y="5793.55" type="priority"/>
    <node id="2222874800" x="4580.72" y="5798.95" type="right_before_left"/>
    <node id="2222874855" x="4415.74" y="6023.40" type="right_before_left"/>
    <node id="2222874876" x="4435.45" y="6093.83" type="priority"/>
    <node id="2222874881" x="2411.66" y="6117.04" type="priority"/>
    <node id="2223033671" x="988.56" y="3850.97" type="priority"/>
    <node id="2223033672" x="1743.81" y="3864.47" type="priority"/>
    <node id="2223033679" x="1080.95" y="3919.02" type="priority"/>
    <node id="2223033681" x="1704.78" y="3941.37" type="priority"/>
    <node id="2223033683" x="1834.99" y="3963.43" type="priority"/>
    <node id="2223033684" x="1867.29" y="4008.36" type="priority"/>
    <node id="2223033705" x="1505.90" y="4224.54" type="priority"/>
    <node id="2223033709" x="1504.55" y="4263.63" type="priority"/>
    <node id="2223033742" x="2406.61" y="4835.16" type="priority"/>
    <node id="2223033761" x="1782.93" y="5133.97" type="priority"/>
    <node id="2223033765" x="2111.30" y="5184.59" type="priority"/>
    <node id="2223033780" x="1804.95" y="5406.43" type="priority"/>
    <node id="2223033782" x="1765.37" y="5509.39" type="priority"/>
    <node id="2223033794" x="1582.88" y="5712.23" type="priority"/>
    <node id="2223033804" x="1443.99" y="5878.75" type="priority"/>
    <node id="2223033805" x="1437.61" y="5890.70" type="priority"/>
    <node id="2225814511" x="1775.35" y="3543.62" type="priority"/>
    <node id="2225814515" x="1365.75" y="3591.57" type="priority"/>
    <node id="2225814516" x="1849.85" y="3603.36" type="priority"/>
    <node id="2225814518" x="1794.73" y="3617.10" type="priority"/>
    <node id="2225814523" x="1816.81" y="3652.82" type="priority"/>
    <node id="2225814526" x="1867.88" y="3659.36" type="priority"/>
    <node id="2225814531" x="1604.65" y="3695.10" type="priority"/>
    <node id="2225814533" x="1381.20" y="3696.48" type="priority"/>
    <node id="2225814536" x="1527.27" y="3697.28" type="priority"/>
    <node id="2225814538" x="1418.67" y="3704.68" type="priority"/>
    <node id="2225814539" x="1970.75" y="3704.81" type="priority"/>
    <node id="2225814548" x="1382.88" y="3741.55" type="priority"/>
    <node id="2225814558" x="1927.94" y="3771.13" type="priority"/>
    <node id="2225814560" x="1955.53" y="3776.57" type="priority"/>
    <node id="2225814562" x="1509.95" y="3784.76" type="priority"/>
    <node id="2225814564" x="1921.83" y="3793.14" type="priority"/>
    <node id="2225814574" x="1944.52" y="3832.56" type="priority"/>
    <node id="2225814578" x="1922.64" y="3877.53" type="priority"/>
    <node id="2225814580" x="1887.86" y="3882.15" type="priority"/>
    <node id="2225814582" x="1444.32" y="3886.26" type="priority"/>
    <node id="2225814586" x="1634.99" y="3891.49" type="priority"/>
    <node id="2225814588" x="1481.24" y="3893.64" type="priority"/>
    <node id="2225814605" x="1542.99" y="3909.98" type="right_before_left"/>
    <node id="2225814606" x="1652.87" y="3910.19" type="priority"/>
    <node id="2225814614" x="1521.03" y="3918.20" type="priority"/>
    <node id="2225814615" x="1589.16" y="3918.59" type="priority"/>
    <node id="2225814616" x="1542.53" y="3919.66" type="priority"/>
    <node id="2225814619" x="1552.17" y="3920.76" type="priority"/>
    <node id="2225814620" x="1269.84" y="3921.93" type="priority"/>
    <node id="2225814621" x="1574.68" y="3921.05" type="priority"/>
    <node id="2225814627" x="1898.66" y="3933.51" type="priority"/>
    <node id="2225814628" x="1689.07" y="3930.54" type="priority"/>
    <node id="2225814629" x="1865.02" y="3932.98" type="priority"/>
    <node id="2225814631" x="1708.96" y="3937.26" type="priority"/>
    <node id="2225814632" x="1551.87" y="3941.78" type="priority"/>
    <node id="2225814636" x="1487.84" y="3948.21" type="priority"/>
    <node id="2225814639" x="1445.94" y="3980.27" type="priority"/>
    <node id="2225814646" x="1433.34" y="4018.95" type="priority"/>
    <node id="2225814655" x="1535.24" y="4043.72" type="priority"/>
    <node id="2225814657" x="1612.06" y="4048.90" type="right_before_left"/>
    <node id="2225814663" x="1628.74" y="4059.94" type="priority"/>
    <node id="2225814665" x="1583.02" y="4068.19" type="priority"/>
    <node id="2225814670" x="1593.88" y="4077.45" type="priority"/>
    <node id="2225814674" x="1608.97" y="4089.20" type="priority"/>
    <node id="2225814677" x="1593.58" y="4113.64" type="priority"/>
    <node id="2225814680" x="1506.89" y="4186.98" type="priority"/>
    <node id="2225814681" x="1529.74" y="4194.67" type="priority"/>
    <node id="2225814682" x="1662.19" y="4237.10" type="priority"/>
    <node id="2225814690" x="2000.93" y="4717.84" type="priority"/>
    <node id="2225814706" x="2102.09" y="4984.47" type="right_before_left"/>
    <node id="2229217788" x="1000.10" y="3616.98" type="priority"/>
    <node id="2229217799" x="1069.54" y="3695.90" type="priority"/>
    <node id="2229217800" x="874.57" y="3746.79" type="priority"/>
    <node id="2229217803" x="1200.36" y="3765.16" type="priority"/>
    <node id="2229217814" x="943.30" y="4007.96" type="priority"/>
    <node id="2229217818" x="924.76" y="4121.26" type="priority"/>
    <node id="2229217822" x="850.15" y="4948.76" type="priority"/>
    <node id="2229217827" x="2138.23" y="4966.02" type="priority"/>
    <node id="2229217836" x="565.35" y="4985.54" type="priority"/>
    <node id="2229217852" x="473.32" y="4999.11" type="priority"/>
    <node id="2229217864" x="764.17" y="5033.21" type="priority"/>
    <node id="2229217867" x="588.32" y="5039.30" type="right_before_left"/>
    <node id="2229217928" x="2005.82" y="5160.70" type="right_before_left"/>
    <node id="2229217939" x="1781.57" y="5189.37" type="priority"/>
    <node id="2229217942" x="2186.41" y="5372.79" type="priority"/>
    <node id="2229217943" x="2236.09" y="5467.12" type="priority"/>
    <node id="2229217945" x="2291.29" y="5564.84" type="priority"/>
    <node id="2229217950" x="2331.02" y="5647.91" type="priority"/>
    <node id="2229217960" x="2243.20" y="5717.15" type="right_before_left"/>
    <node id="2229217962" x="2953.25" y="5969.46" type="priority"/>
    <node id="2232166346" x="1522.76" y="5343.10" type="priority"/>
    <node id="2232166349" x="1390.90" y="5345.44" type="priority"/>
    <node id="2232166360" x="1741.36" y="5360.08" type="priority"/>
    <node id="2232166362" x="1515.18" y="5363.24" type="right_before_left"/>
    <node id="2232166372" x="1803.02" y="5371.47" type="priority"/>
    <node id="2232166385" x="1595.42" y="5398.11" type="priority"/>
    <node id="2232166400" x="1493.91" y="5419.71" type="right_before_left"/>
    <node id="2232166412" x="1540.86" y="5452.18" type="priority"/>
    <node id="2232166419" x="1577.97" y="5477.41" type="priority"/>
    <node id="2232166421" x="1775.66" y="5481.89" type="priority"/>
    <node id="2232166440" x="2002.55" y="6097.40" type="priority"/>
    <node id="2232166458" x="3641.95" y="6523.71" type="priority"/>
    <node id="2232166476" x="2044.43" y="7520.78" type="priority"/>
    <node id="240061726" x="555.95" y="4743.42" type="priority"/>
    <node id="240061730" x="711.48" y="4404.14" type="priority"/>
    <node id="2411779784" x="4087.59" y="1793.12" type="right_before_left"/>
    <node id="2411779793" x="4002.66" y="1469.48" type="right_before_left"/>
    <node id="2411779860" x="3923.36" y="1813.08" type="right_before_left"/>
    <node id="2411779865" x="3909.81" y="1698.61" type="right_before_left"/>
    <node id="2411779875" x="4061.58" y="1645.86" type="right_before_left"/>
    <node id="2411779876" x="3876.75" y="1371.21" type="right_before_left"/>
    <node id="2411779879" x="3995.10" y="1477.06" type="right_before_left"/>
    <node id="2411779908" x="3901.04" y="1817.13" type="priority"/>
    <node id="2411779959" x="3988.08" y="1462.16" type="right_before_left"/>
    <node id="2411780041" x="4508.17" y="899.26" type="right_before_left"/>
    <node id="2411780045" x="3902.11" y="1643.74" type="right_before_left"/>
    <node id="2411824566" x="4561.33" y="2772.67" type="right_before_left"/>
    <node id="2411824580" x="4590.64" y="2698.85" type="right_before_left"/>
    <node id="2411824594" x="4069.99" y="2833.75" type="priority"/>
    <node id="2411824599" x="4259.35" y="5101.21" type="right_before_left"/>
    <node id="2411824624" x="4131.51" y="3202.52" type="priority"/>
    <node id="2411824625" x="4062.15" y="2876.71" type="priority"/>
    <node id="2411824628" x="4481.80" y="2690.99" type="right_before_left"/>
    <node id="2411824635" x="4254.50" y="5108.37" type="priority"/>
    <node id="2411824727" x="4129.66" y="4119.30" type="priority"/>
    <node id="2411824769" x="3932.23" y="4159.19" type="right_before_left"/>
    <node id="2411824789" x="4253.39" y="2875.73" type="right_before_left"/>
    <node id="2411824799" x="4472.46" y="5254.39" type="right_before_left"/>
    <node id="2411824829" x="4430.22" y="3041.17" type="priority"/>
    <node id="2411824864" x="4864.60" y="2837.40" type="right_before_left"/>
    <node id="2411824890" x="4002.23" y="2941.26" type="priority"/>
    <node id="2411824921" x="4812.39" y="2979.53" type="priority"/>
    <node id="2411824926" x="3927.65" y="4095.01" type="right_before_left"/>
    <node id="2411824952" x="4280.95" y="6127.82" type="priority"/>
    <node id="2411824956" x="4046.59" y="4099.98" type="priority"/>
    <node id="2411824964" x="4015.05" y="5019.47" type="right_before_left"/>
    <node id="2411824968" x="4725.38" y="5484.47" type="priority"/>
    <node id="2411825005" x="4472.94" y="5264.89" type="priority"/>
    <node id="2411825014" x="3880.60" y="4094.76" type="priority"/>
    <node id="2411825027" x="4095.68" y="5045.47" type="right_before_left"/>
    <node id="2414242934" x="4300.03" y="1150.64" type="priority"/>
    <node id="242800005" x="3887.26" y="2174.78" type="priority"/>
    <node id="242800049" x="3692.01" y="2228.15" type="priority"/>
    <node id="242800054" x="3676.35" y="2230.91" type="priority"/>
    <node id="242800066" x="3663.15" y="2222.96" type="priority"/>
    <node id="242800091" x="3702.62" y="2205.93" type="priority"/>
    <node id="242800100" x="3848.08" y="2187.64" type="priority"/>
    <node id="242800104" x="3924.12" y="2158.35" type="priority"/>
    <node id="242800112" x="3922.24" y="2038.96" type="priority"/>
    <node id="242800123" x="3875.32" y="1749.68" type="priority"/>
    <node id="242800145" x="3576.78" y="722.65" type="dead_end"/>
    <node id="242800175" x="3697.59" y="2265.02" type="priority"/>
    <node id="242800179" x="3704.13" y="2285.83" type="priority"/>
    <node id="242800270" x="3813.66" y="2220.50" type="priority"/>
    <node id="242800336" x="3715.40" y="2416.86" type="priority"/>
    <node id="242800362" x="3714.13" y="1779.30" type="priority"/>
    <node id="242800385" x="3914.44" y="2062.15" type="priority"/>
    <node id="2458488707" x="3840.25" y="2065.70" type="priority"/>
    <node id="2458488717" x="3726.70" y="2520.60" type="priority"/>
    <node id="247391757" x="3298.89" y="1036.33" type="priority"/>
    <node id="247393077" x="3816.41" y="2621.54" type="priority"/>
    <node id="247393078" x="3824.08" y="2414.96" type="priority"/>
    <node id="247393080" x="3844.33" y="2623.41" type="priority"/>
    <node id="247393083" x="3843.69" y="2401.32" type="priority"/>
    <node id="251813422" x="583.13" y="3030.54" type="rail_crossing"/>
    <node id="251813456" x="1284.53" y="3674.43" type="traffic_light" tl="GS_251813456"/>
    <node id="2622975885" x="1756.85" y="2923.89" type="dead_end"/>
    <node id="2622975886" x="1758.61" y="2927.67" type="dead_end"/>
    <node id="2622975896" x="1595.01" y="3155.89" type="priority"/>
    <node id="2622975899" x="1595.02" y="3175.59" type="priority"/>
    <node id="2622975901" x="1565.09" y="3206.74" type="priority"/>
    <node id="2633085031" x="3509.05" y="0.05" type="dead_end"/>
    <node id="2635613420" x="3333.73" y="692.41" type="rail_signal"/>
    <node id="2635613452" x="2961.06" y="1296.10" type="rail_crossing"/>
    <node id="2635613473" x="1954.68" y="2753.22" type="rail_signal"/>
    <node id="2635613482" x="1104.48" y="3579.40" type="rail_crossing"/>
    <node id="2635613487" x="596.98" y="4070.81" type="rail_signal"/>
    <node id="2635632209" x="1782.14" y="2910.88" type="dead_end"/>
    <node id="2682568363" x="1481.91" y="3202.19" type="dead_end"/>
    <node id="2682568368" x="1490.56" y="3212.44" type="dead_end"/>
    <node id="2682568446" x="1458.47" y="3245.54" type="dead_end"/>
    <node id="2682568458" x="1466.09" y="3251.47" type="dead_end"/>
    <node id="2724013900" x="1092.42" y="865.51" type="priority"/>
    <node id="2724013917" x="965.63" y="880.80" type="priority"/>
    <node id="2724013939" x="924.53" y="945.53" type="priority"/>