<?xml version="1.0" encoding="UTF-8"?>

<!-- generated on 2025-04-04 16:23:20 by Eclipse SUMO netconvert Version 1.19.0
<configuration xmlns:xsi="http://www.w3.org/2001/XMLSchema-instance" xsi:noNamespaceSchemaLocation="http://sumo.dlr.de/xsd/netconvertConfiguration.xsd">

    <input>
        <sumo-net-file value="souppes_sur_loing/souppes_sur_loing.net.xml"/>
    </input>

    <output>
        <plain-output-prefix value="souppes_sur_loing/souppes_sur_loing"/>
    </output>

    <processing>
        <geometry.min-radius.fix.railways value="false"/>
        <geometry.max-grade.fix value="false"/>
        <offset.disable-normalization value="true"/>
        <lefthand value="0"/>
    </processing>

    <tls_building>
        <tls.ignore-internal-junction-jam value="1"/>
    </tls_building>

    <junctions>
        <no-turnarounds value="true"/>
        <junctions.corner-detail value="5"/>
        <junctions.limit-turn-speed value="5.50"/>
        <rectangular-lane-cut value="0"/>
    </junctions>

    <pedestrian>
        <walkingareas value="0"/>
    </pedestrian>

</configuration>
-->

<edges version="1.16" xmlns:xsi="http://www.w3.org/2001/XMLSchema-instance" xsi:noNamespaceSchemaLocation="http://sumo.dlr.de/xsd/edges_file.xsd">
    <location netOffset="-478839.44,-5333302.76" convBoundary="0.00,0.00,6880.59,7898.66" origBoundary="2.697164,48.068781,2.812794,48.269237" projParameter="+proj=utm +zone=31 +ellps=WGS84 +datum=WGS84 +units=m +no_defs"/>

    <edge id="-1000366825" from="9233990643" to="9233990647" priority="4" type="highway.unclassified" numLanes="1" speed="13.89" shape="1556.12,1113.50 1562.06,1091.56 1567.63,1065.48 1576.67,1029.08 1580.14,1015.90 1583.86,995.22 1583.29,987.29 1577.49,975.27 1571.68,962.71 1567.49,953.17" disallow="tram rail_urban rail rail_electric rail_fast ship"/>
    <edge id="-1000869282" from="9238618028" to="9238618031" priority="1" type="highway.service" numLanes="1" speed="5.56" shape="1761.81,3095.19 1746.73,3114.62 1721.89,3109.74" allow="pedestrian delivery bicycle"/>
    <edge id="-1000869283#0" from="9238618031" to="9238618033" priority="1" type="highway.service" numLanes="1" speed="5.56" allow="pedestrian delivery bicycle"/>
    <edge id="-1000869283#1" from="9238618030" to="9238618031" priority="1" type="highway.service" numLanes="1" speed="5.56" allow="pedestrian delivery bicycle"/>
    <edge id="-1058136844#0" from="2724013939" to="2724013917" priority="4" type="highway.unclassified" numLanes="1" speed="13.89" shape="924.53,945.53 929.77,942.01 935.69,934.64 935.77,920.88 939.27,911.90 947.73,904.58 958.14,899.17 963.41,892.95 964.64,884.15 965.63,880.80" disallow="tram rail_urban rail rail_electric rail_fast ship"/>
    <edge id="-1059337926#0" from="9733100145" to="9733100144" priority="1" type="highway.service" numLanes="1" speed="5.56" allow="pedestrian delivery bicycle"/>
    <edge id="-1059337926#1" from="9733100143" to="9733100145" priority="1" type="highway.service" numLanes="1" speed="5.56" allow="pedestrian delivery bicycle"/>
    <edge id="-1059337927" from="9733100145" to="9733100147" priority="1" type="highway.service" numLanes="1" speed="5.56" shape="1410.18,3326.14 1392.01,3344.00 1388.96,3346.91" allow="pedestrian delivery bicycle"/>
    <edge id="-1059337928" from="9733100148" to="9733100149" priority="1" type="highway.service" numLanes="1" speed="5.56" allow="pedestrian delivery bicycle"/>
    <edge id="-1059337929" from="9733100150" to="423937968" priority="1" type="highway.service" numLanes="1" speed="5.56" shape="1972.16,2679.20 1951.21,2702.62 1963.40,2713.22 1994.00,2681.01 1921.15,2628.59" allow="pedestrian delivery bicycle"/>
    <edge id="-1059337930" from="9733100154" to="1794680601" priority="1" type="highway.service" numLanes="1" speed="5.56" shape="3102.67,3980.90 3090.62,3980.24 3087.21,3975.98 3079.49,3970.05" allow="pedestrian delivery bicycle"/>
    <edge id="-1059337931" from="9733100158" to="9733100160" priority="3" type="highway.residential" numLanes="1" speed="13.89" shape="3206.10,4094.76 3186.47,4065.11 3152.07,4062.73" disallow="tram rail_urban rail rail_electric rail_fast ship"/>
    <edge id="-1059337932" from="9733100161" to="9733100167" priority="3" type="highway.residential" numLanes="1" speed="13.89" shape="3072.01,4056.12 3077.61,4061.97 3096.96,4063.30 3100.25,4066.27 3102.67,4073.91 3102.11,4084.05 3121.12,4140.34" disallow="tram rail_urban rail rail_electric rail_fast ship"/>
    <edge id="-1059337933" from="9733100168" to="9733100170" priority="1" type="highway.service" numLanes="1" speed="5.56" allow="pedestrian delivery bicycle"/>
    <edge id="-1059337934#0" from="9733100170" to="9733100171" priority="1" type="highway.service" numLanes="1" speed="5.56" allow="pedestrian delivery bicycle"/>
    <edge id="-1059337934#1" from="2222874193" to="9733100170" priority="1" type="highway.service" numLanes="1" speed="5.56" shape="3234.53,1204.44 3227.00,1225.27 3205.51,1239.85" allow="pedestrian delivery bicycle"/>
    <edge id="-1059337936" from="9733100174" to="1776915713" priority="3" type="highway.residential" numLanes="1" speed="13.89" shape="4563.76,2857.95 4522.73,2977.85 4520.68,2986.51" disallow="tram rail_urban rail rail_electric rail_fast ship"/>
    <edge id="-1065595929#0" from="9786074895" to="3864796556" priority="3" type="highway.residential" numLanes="1" speed="13.89" disallow="tram rail_urban rail rail_electric rail_fast ship"/>
    <edge id="-1065595929#1" from="cluster_5882877285_5882877286_9786075760_9786075778" to="9786074895" priority="3" type="highway.residential" numLanes="1" speed="13.89" shape="1518.87,3247.25 1509.64,3255.84" disallow="tram rail_urban rail rail_electric rail_fast ship"/>
    <edge id="-1065595929#3" from="2622975901" to="cluster_5882877285_5882877286_9786075760_9786075778" priority="3" type="highway.residential" numLanes="1" speed="13.89" shape="1565.09,3206.74 1521.33,3245.12" disallow="tram rail_urban rail rail_electric rail_fast ship"/>
    <edge id="-1065595929#4" from="9786075749" to="2622975901" priority="3" type="highway.residential" numLanes="1" speed="13.89" disallow="tram rail_urban rail rail_electric rail_fast ship"/>
    <edge id="-1065595930#0" from="9786074896" to="cluster_386027399_386027400" priority="3" type="highway.residential" numLanes="1" speed="13.89" shape="1478.53,3295.94 1474.61,3301.61 1466.82,3310.64 1443.84,3338.84 1418.13,3364.84" disallow="tram rail_urban rail rail_electric rail_fast ship"/>
    <edge id="-1065595930#1" from="3864797460" to="9786074896" priority="3" type="highway.residential" numLanes="1" speed="13.89" disallow="tram rail_urban rail rail_electric rail_fast ship"/>
    <edge id="-1065595956#0" from="cluster_9786075773_9786075781" to="9786075774" priority="1" type="highway.service" numLanes="1" speed="5.56" shape="1511.04,3233.81 1521.37,3223.43" allow="pedestrian delivery bicycle"/>
    <edge id="-1065595956#2" from="9786075800" to="cluster_9786075773_9786075781" priority="1" type="highway.service" numLanes="1" speed="5.56" shape="1493.78,3221.27 1508.80,3236.05" allow="pedestrian delivery bicycle"/>
    <edge id="-1065595956#3" from="9786075775" to="9786075800" priority="1" type="highway.service" numLanes="1" speed="5.56" allow="pedestrian delivery bicycle"/>
    <edge id="-1065809717" from="9787633618" to="9787633621" priority="1" type="highway.service" numLanes="1" speed="5.56" shape="1359.81,3431.90 1363.59,3434.46 1386.60,3450.06 1394.30,3439.05 1372.13,3423.35 1368.48,3420.78" allow="pedestrian delivery bicycle"/>
    <edge id="-1065809719" from="9787633629" to="9787633631" priority="1" type="highway.service" numLanes="1" speed="5.56" shape="1462.87,3417.31 1462.36,3418.08 1451.19,3432.05" allow="pedestrian delivery bicycle"/>
    <edge id="-1065809723" from="9787633634" to="cluster_2958136664_3270984624_9787633637" priority="1" type="highway.service" numLanes="1" speed="5.56" shape="1266.16,3215.27 1242.70,3231.76 1233.60,3239.43 1222.13,3248.89" allow="pedestrian delivery bicycle"/>
    <edge id="-1102547370#0" from="2984127729" to="cluster_10089080215_2222874675" priority="1" type="highway.track" numLanes="1" speed="5.56" shape="3885.76,4457.82 3902.46,4535.50 3925.93,4649.50 3954.62,4768.57 3974.36,4848.08 3995.33,4925.93 3966.41,4900.75 3939.22,4882.10 3916.23,4866.57 3872.35,4849.02 3820.15,4835.66 3779.42,4824.33 3709.10,4806.61" allow="pedestrian motorcycle moped bicycle"/>
    <edge id="-1102547370#1" from="10089084741" to="2984127729" priority="1" type="highway.track" numLanes="1" speed="5.56" shape="3787.46,4088.10 3800.52,4180.45 3833.58,4172.80 3835.61,4183.13 3859.12,4310.26 3885.76,4457.82" allow="pedestrian motorcycle moped bicycle"/>
    <edge id="-1102547370#2" from="10089084733" to="10089084741" priority="1" type="highway.track" numLanes="1" speed="5.56" shape="3822.83,4046.04 3816.16,4080.64 3785.85,4076.75 3787.46,4088.10" allow="pedestrian motorcycle moped bicycle"/>
    <edge id="-1102547371" from="10089084741" to="10089084734" priority="1" type="highway.service" numLanes="1" speed="5.56" shape="3787.46,4088.10 3731.01,4073.14 3690.31,4058.16 3647.97,4036.02 3612.03,4016.26 3580.10,4004.43 3533.01,3989.47 3489.12,3980.01" allow="pedestrian delivery bicycle"/>
    <edge id="-1102547372" from="10089084747" to="1794680814" priority="1" type="highway.track" numLanes="1" speed="5.56" shape="3801.31,3773.19 3741.16,3739.19 3702.82,3717.84 3663.68,3696.50 3624.55,3678.32 3576.65,3661.77 3490.26,3639.20" allow="pedestrian motorcycle moped bicycle"/>
    <edge id="-1102547373" from="8788675747" to="3007192502" priority="1" type="highway.path" numLanes="1" speed="5.56" shape="1751.23,1823.03 1749.29,1828.07 1752.40,1833.03 1758.40,1837.58 1768.97,1839.04 1791.60,1837.47 1803.16,1836.04 1809.83,1831.65 1822.31,1819.08 1839.19,1796.05 1859.80,1757.81 1870.15,1735.40 1880.39,1695.20 1892.59,1646.65 1904.44,1613.59 1907.99,1600.86 1911.97,1597.66 1917.54,1595.66 1929.52,1597.20 1946.30,1605.51 1961.49,1615.39 1980.68,1630.04 1990.69,1639.56 2006.30,1657.40 2012.34,1674.08 2017.95,1682.42 2033.58,1703.04 2048.82,1726.45 2055.64,1742.33 2060.06,1750.28 2066.06,1755.43 2076.46,1765.33 2095.36,1789.58" width="2.00" allow="pedestrian bicycle"/>
    <edge id="-1102547374" from="2140027962" to="2139975852" priority="1" type="highway.track" numLanes="1" speed="5.56" shape="1945.67,387.78 1944.91,390.44 1936.79,418.80 1924.20,467.84 1921.05,515.42 1914.12,560.19 1885.18,666.43 1855.79,778.63 1827.35,888.62 1811.46,940.02 1797.41,978.22 1766.88,1028.25 1729.76,1088.67 1704.56,1131.77" allow="pedestrian motorcycle moped bicycle"/>
    <edge id="-1102547375" from="2411779784" to="2411824628" priority="1" type="highway.track" numLanes="1" speed="5.56" shape="4087.59,1793.12 4084.71,1855.32 4088.66,1902.19 4100.25,1952.84 4110.53,1992.09 4119.52,2019.95 4127.36,2093.42 4149.21,2176.99 4192.75,2287.08 4232.40,2369.33 4280.56,2486.01 4296.97,2507.42 4338.94,2540.30 4460.55,2668.37 4481.80,2690.99" allow="pedestrian motorcycle moped bicycle"/>
    <edge id="-1102547377" from="2724014001" to="9233990643" priority="1" type="highway.track" numLanes="1" speed="5.56" shape="725.66,1818.99 739.16,1828.92 779.23,1852.54 804.91,1865.57 826.77,1872.75 844.07,1877.73 896.35,1889.37 903.03,1886.97 907.79,1881.09 917.36,1853.01 939.21,1799.44 954.63,1760.61 959.01,1758.71 961.57,1758.64 986.06,1767.16 1036.56,1786.07 1082.36,1802.71 1108.41,1812.46 1112.70,1811.65 1116.18,1810.45 1121.25,1805.75 1124.72,1800.07 1129.27,1790.72 1133.22,1776.49 1139.24,1756.48 1144.78,1746.31 1161.07,1728.94 1170.41,1719.76 1172.59,1716.17 1172.88,1712.21 1172.07,1708.63 1169.96,1706.35 1166.67,1704.77 1160.07,1701.61 1158.07,1699.23 1154.96,1693.77 1154.05,1690.10 1154.75,1685.38 1171.36,1648.48 1188.38,1612.33 1206.01,1575.59 1209.39,1573.08 1213.97,1572.37 1219.81,1574.05 1231.19,1576.79 1235.78,1576.77 1242.96,1571.73 1249.49,1564.00 1254.67,1561.59 1263.65,1564.15 1273.44,1570.08 1293.82,1579.35 1308.39,1582.88 1317.37,1583.25 1323.15,1582.44 1327.73,1580.63 1332.10,1577.20 1338.96,1568.79 1346.94,1553.89 1377.39,1503.19 1387.00,1499.32 1398.31,1494.17 1405.56,1488.39 1408.95,1481.13 1416.80,1463.42 1424.22,1443.78 1434.18,1420.94 1444.16,1401.73 1455.20,1379.74 1460.72,1368.64 1466.22,1352.21 1471.71,1331.51 1475.53,1322.55 1481.25,1306.76 1489.73,1286.06 1497.35,1266.00 1501.56,1248.29 1504.73,1235.71 1515.33,1211.38 1530.82,1175.94 1539.72,1154.17 1548.38,1128.82 1556.12,1113.50" allow="pedestrian motorcycle moped bicycle"/>
    <edge id="-1102547378" from="10089084866" to="2724014001" priority="1" type="highway.track" numLanes="1" speed="5.56" shape="727.76,2099.28 731.06,2085.40 733.34,2060.90 727.57,2033.14 726.50,1998.30 723.56,1965.81 719.01,1951.23 721.30,1930.36 722.60,1918.53 719.10,1881.84 719.17,1854.17 720.71,1846.83 725.68,1825.53 725.66,1818.99" allow="pedestrian motorcycle moped bicycle"/>
    <edge id="-1114866190" from="2222874354" to="2222874359" priority="3" type="highway.residential" numLanes="1" speed="13.89" shape="3547.80,1659.55 3510.10,1723.41 3499.88,1734.25" disallow="tram rail_urban rail rail_electric rail_fast ship"/>
    <edge id="-1114866191#0" from="2222874390" to="2222874359" priority="4" type="highway.unclassified" numLanes="1" speed="13.89" shape="3531.19,1811.55 3526.73,1795.66 3499.88,1734.25" disallow="tram rail_urban rail rail_electric rail_fast ship"/>
    <edge id="-1114866191#1" from="2222874545" to="2222874390" priority="4" type="highway.unclassified" numLanes="1" speed="13.89" shape="3669.42,2189.86 3657.14,2176.04 3650.51,2170.52 3640.98,2165.98 3626.40,2161.98 3617.73,2158.70 3610.56,2154.49 3603.08,2147.46 3595.39,2135.77 3572.26,2094.77 3567.53,2084.00 3562.86,2070.60 3559.45,2059.23 3557.35,2049.24 3555.77,2033.68 3554.32,1966.01 3553.01,1951.16 3545.32,1899.72 3539.35,1867.99 3533.30,1825.22 3531.19,1811.55" disallow="tram rail_urban rail rail_electric rail_fast ship"/>
    <edge id="-1125009822" from="10287742935" to="5365465669" priority="4" type="highway.unclassified" numLanes="1" speed="13.89" shape="3251.74,2999.95 3253.90,3000.42 3268.60,3004.33 3273.97,3005.89" disallow="tram rail_urban rail rail_electric rail_fast ship"/>
    <edge id="-1125009823#0" from="cluster_5365465714_7414277903" to="1407328694" priority="1" type="highway.path" numLanes="1" speed="5.56" shape="3190.54,3174.20 3148.93,3160.23 3106.73,3150.51 3104.19,3143.26" width="2.00" allow="pedestrian bicycle"/>
    <edge id="-1134813071#0" from="10089084734" to="1841717987" priority="10" type="highway.tertiary" numLanes="1" speed="13.89" shape="3489.12,3980.01 3537.77,3979.86 3599.98,3982.86 3644.66,3990.67 3695.72,4000.05 3822.94,4036.40" disallow="tram rail_urban rail rail_electric rail_fast ship">
        <param key="ref" value="D 120"/>
    </edge>
    <edge id="-1134813071#1" from="2984127705" to="10089084734" priority="10" type="highway.tertiary" numLanes="1" speed="13.89" shape="3439.85,3980.52 3450.06,3980.13 3489.12,3980.01" disallow="tram rail_urban rail rail_electric rail_fast ship">
        <param key="ref" value="D 120"/>
    </edge>
    <edge id="-1134813071#2" from="cluster_1794680515_1794680543_1794680853" to="2984127705" priority="10" type="highway.tertiary" numLanes="1" speed="13.89" shape="3362.13,3983.50 3439.85,3980.52" disallow="tram rail_urban rail rail_electric rail_fast ship">
        <param key="ref" value="D 120"/>
    </edge>
    <edge id="-1134813071#4" from="1776915654" to="cluster_1794680515_1794680543_1794680853" priority="10" type="highway.tertiary" numLanes="1" speed="13.89" shape="3258.38,4043.49 3287.24,4012.44 3311.11,3993.29 3331.52,3987.29" disallow="tram rail_urban rail rail_electric rail_fast ship">
        <param key="ref" value="D 120"/>
    </edge>
    <edge id="-1156904873#0" from="5365465672" to="5365465669" priority="4" type="highway.unclassified" numLanes="1" speed="13.89" disallow="tram rail_urban rail rail_electric rail_fast ship"/>
    <edge id="-1156904873#1" from="5365465707" to="5365465672" priority="4" type="highway.unclassified" numLanes="1" speed="13.89" shape="3231.89,3118.62 3238.60,3112.83 3243.18,3109.44 3245.61,3106.70 3248.29,3102.76 3250.92,3095.63 3261.63,3053.59 3264.11,3043.85" disallow="tram rail_urban rail rail_electric rail_fast ship"/>
    <edge id="-1156904874" from="5365465648" to="5365465707" priority="4" type="highway.unclassified" numLanes="1" speed="13.89" shape="3223.39,3134.57 3227.76,3124.45 3231.89,3118.62" disallow="tram rail_urban rail rail_electric rail_fast ship"/>
    <edge id="-1156904875" from="10287742934" to="10758538503" priority="1" type="highway.cycleway" numLanes="1" speed="5.56" shape="3301.66,3002.38 3300.48,3007.56 3299.66,3011.45" width="2.00" allow="pedestrian bicycle"/>
    <edge id="-1156904876#0" from="cluster_7414277901_7414277902" to="cluster_5365465714_7414277903" priority="1" type="highway.path" numLanes="1" speed="5.56" shape="3192.78,3168.43 3192.03,3170.61 3190.54,3174.20" width="2.00" allow="pedestrian bicycle"/>
    <edge id="-1156904877" from="5365465707" to="cluster_7414277901_7414277902" priority="1" type="highway.path" numLanes="1" speed="5.56" shape="3231.89,3118.62 3222.96,3121.79 3215.50,3136.14 3208.61,3151.40 3206.08,3153.28 3203.04,3154.59 3200.06,3155.59 3197.20,3156.26 3196.26,3158.38 3195.64,3160.14" width="2.00" allow="pedestrian bicycle"/>
    <edge id="-127089283#0" from="1407328599" to="1407328580" priority="10" type="highway.tertiary" numLanes="1" speed="22.22" shape="3720.23,2570.72 3636.74,2257.70 3634.94,2245.79 3635.59,2237.91" disallow="tram rail_urban rail rail_electric rail_fast ship">
        <param key="ref" value="D 377"/>
    </edge>
    <edge id="-127089283#1" from="5365465630" to="1407328599" priority="10" type="highway.tertiary" numLanes="1" speed="22.22" disallow="tram rail_urban rail rail_electric rail_fast ship">
        <param key="ref" value="D 377"/>
    </edge>
    <edge id="-127089283#2" from="1407328727" to="5365465630" priority="10" type="highway.tertiary" numLanes="1" speed="22.22" shape="3728.41,3229.47 3729.67,3224.17 3746.67,3156.02 3789.45,2992.30 3794.97,2959.67 3796.31,2935.47 3795.83,2894.97 3764.00,2754.87" disallow="tram rail_urban rail rail_electric rail_fast ship">
        <param key="ref" value="D 377"/>
    </edge>
    <edge id="-127089287#0" from="1407328680" to="1407328692" priority="10" type="highway.tertiary" numLanes="1" speed="22.22" shape="2635.59,3084.34 2714.32,3092.11 2819.67,3104.81 2891.21,3113.76" disallow="tram rail_urban rail rail_electric rail_fast ship">
        <param key="ref" value="D 30"/>
    </edge>
    <edge id="-127089287#1" from="1407328660" to="1407328680" priority="10" type="highway.tertiary" numLanes="1" speed="22.22" shape="2473.47,3081.61 2509.07,3079.24 2554.72,3078.10 2635.59,3084.34" disallow="tram rail_urban rail rail_electric rail_fast ship">
        <param key="ref" value="D 30"/>
    </edge>
    <edge id="-127089287#2" from="1794680688" to="1407328660" priority="10" type="highway.tertiary" numLanes="1" speed="22.22" shape="2182.12,3117.32 2198.78,3116.73 2216.28,3113.24 2267.32,3099.95 2297.77,3093.61 2330.00,3089.52 2460.85,3082.31 2473.47,3081.61" disallow="tram rail_urban rail rail_electric rail_fast ship">
        <param key="ref" value="D 30"/>
    </edge>
    <edge id="-127089287#3" from="2222874589" to="1794680688" priority="10" type="highway.tertiary" numLanes="1" speed="22.22" shape="2027.21,3010.61 2047.17,3018.07 2070.39,3032.84 2114.66,3074.56 2142.71,3100.49 2154.31,3108.79 2167.39,3114.42 2182.12,3117.32" disallow="tram rail_urban rail rail_electric rail_fast ship">
        <param key="ref" value="D 30"/>
    </edge>
    <edge id="-127089287#4" from="1407328657" to="2222874589" priority="10" type="highway.tertiary" numLanes="1" speed="22.22" shape="1916.15,3044.15 1930.70,3032.75 1945.26,3023.74 1961.89,3015.51 1979.01,3009.48 1995.99,3007.60 2010.35,3007.60 2027.21,3010.61" disallow="tram rail_urban rail rail_electric rail_fast ship">
        <param key="ref" value="D 30"/>
    </edge>
    <edge id="-127089287#5" from="8124130128" to="1407328657" priority="10" type="highway.tertiary" numLanes="1" speed="22.22" shape="1570.82,3427.78 1572.66,3422.96 1576.34,3413.63 1587.59,3380.55 1600.26,3350.45 1611.81,3330.36 1632.34,3305.66 1725.79,3219.11 1916.15,3044.15" disallow="tram rail_urban rail rail_electric rail_fast ship">
        <param key="ref" value="D 30"/>
    </edge>
    <edge id="-127089287#6" from="cluster_1407328768_1407328781_386026238" to="8124130128" priority="10" type="highway.tertiary" numLanes="1" speed="22.22" shape="1509.69,3467.65 1513.78,3466.68 1518.88,3465.51 1527.13,3463.22 1531.79,3461.93 1541.14,3458.27 1549.22,3453.79 1556.79,3448.28 1563.60,3441.95 1567.59,3436.24 1570.82,3427.78" disallow="tram rail_urban rail rail_electric rail_fast ship">
        <param key="ref" value="D 30"/>
    </edge>
    <edge id="-143984303" from="2140527747" to="1575632347" priority="11" type="highway.secondary" numLanes="1" speed="19.44" disallow="tram rail_urban rail rail_electric rail_fast ship">
        <param key="ref" value="D 207a"/>
    </edge>
    <edge id="-143984305" from="1575632347" to="2140527737" priority="11" type="highway.secondary" numLanes="1" speed="27.78" shape="707.52,3104.59 684.09,3077.46 674.12,3071.10" disallow="tram rail_urban rail rail_electric rail_fast ship">
        <param key="ref" value="D 207a"/>
    </edge>
    <edge id="-143984345" from="4298883294" to="2140527709" priority="1" type="highway.track" numLanes="1" speed="5.56" shape="894.80,2571.04 892.56,2580.24 882.46,2617.12 868.74,2664.80 859.38,2693.30 849.97,2710.23 830.52,2737.40 811.07,2763.04 802.28,2780.42 798.05,2792.47 801.31,2809.19 801.98,2825.02 793.37,2849.56 774.28,2891.94 770.98,2895.43" allow="pedestrian motorcycle moped bicycle"/>
    <edge id="-143984394" from="2139975923" to="2724159770" priority="1" type="highway.track" numLanes="1" speed="5.56" shape="1493.26,1477.60 1487.73,1493.44 1458.45,1587.50 1438.83,1634.40 1360.03,1785.18 1339.40,1815.66 1315.92,1848.76 1256.70,1917.71 1191.74,2003.68 1139.01,2104.22 1084.73,2202.57 1049.98,2251.49" allow="pedestrian motorcycle moped bicycle"/>
    <edge id="-166220361#0" from="1776915558" to="1776915666" priority="10" type="highway.tertiary" numLanes="1" speed="22.22" shape="4035.05,3215.16 4069.87,3203.84 4092.02,3198.29 4115.98,3193.29 4127.54,3191.52 4141.05,3189.00" disallow="tram rail_urban rail rail_electric rail_fast ship">
        <param key="ref" value="D 30"/>
    </edge>
    <edge id="-166251889#0" from="1777135940" to="1777135766" priority="10" type="highway.tertiary" numLanes="1" speed="22.22" shape="3120.87,4269.85 3109.64,4246.84 3083.93,4188.09 3065.05,4154.03" disallow="tram rail_urban rail rail_electric rail_fast ship">
        <param key="ref" value="D 136"/>
    </edge>
    <edge id="-166251889#1" from="cluster_2984127629_2984127727" to="1777135940" priority="10" type="highway.tertiary" numLanes="1" speed="22.22" shape="3231.18,4422.53 3213.80,4397.47 3193.74,4368.20 3147.58,4305.38 3120.87,4269.85" disallow="tram rail_urban rail rail_electric rail_fast ship">
        <param key="ref" value="D 136"/>
    </edge>
    <edge id="-166251889#3" from="1777136076" to="cluster_2984127629_2984127727" priority="10" type="highway.tertiary" numLanes="1" speed="22.22" shape="3292.59,4603.91 3279.75,4578.52 3272.25,4549.37 3249.42,4464.14 3234.65,4432.39 3233.12,4428.02" disallow="tram rail_urban rail rail_electric rail_fast ship">
        <param key="ref" value="D 136"/>
    </edge>
    <edge id="-166251889#4" from="cluster_10089080215_2222874675" to="1777136076" priority="10" type="highway.tertiary" numLanes="1" speed="22.22" shape="3688.93,4797.29 3673.72,4790.25 3571.54,4747.64 3433.18,4687.74 3359.71,4649.81 3292.59,4603.91" disallow="tram rail_urban rail rail_electric rail_fast ship">
        <param key="ref" value="D 136"/>
    </edge>
    <edge id="-168175012#0" from="423937955" to="1794680395" priority="4" type="highway.unclassified" numLanes="1" speed="13.89" shape="1559.25,2987.64 1555.25,2978.65 1550.45,2969.67 1541.96,2956.43 1535.35,2947.81 1525.25,2936.82 1516.69,2928.04 1513.92,2925.90 1508.67,2921.66 1504.20,2918.30" disallow="tram rail_urban rail rail_electric rail_fast ship"/>
    <edge id="-168175012#1" from="1794535924" to="423937955" priority="4" type="highway.unclassified" numLanes="1" speed="13.89" shape="1556.19,3065.77 1561.06,3058.21 1565.42,3050.83 1568.29,3043.56 1569.36,3038.49 1569.85,3034.37 1569.97,3028.35 1569.56,3022.89 1568.85,3018.09 1567.68,3011.71 1565.52,3004.15 1559.25,2987.64" disallow="tram rail_urban rail rail_electric rail_fast ship"/>
    <edge id="-168175012#2" from="423937916" to="1794535924" priority="4" type="highway.unclassified" numLanes="1" speed="13.89" disallow="tram rail_urban rail rail_electric rail_fast ship"/>
    <edge id="-168175014" from="1794680659" to="1794680789" priority="3" type="highway.residential" numLanes="1" speed="13.89" shape="3071.15,3921.88 3068.31,3955.10 3071.24,3959.88" disallow="tram rail_urban rail rail_electric rail_fast ship"/>
    <edge id="-168175015" from="1794680836" to="1794680763" priority="3" type="highway.residential" numLanes="1" speed="13.89" shape="2845.26,3750.68 2852.12,3733.11 2848.88,3723.36 2729.61,3677.58 2705.70,3684.22 2671.17,3671.61 2659.56,3655.75" disallow="tram rail_urban rail rail_electric rail_fast ship"/>
    <edge id="-168175018" from="1794680468" to="2958122536" priority="1" type="highway.track" numLanes="1" speed="5.56" shape="1732.49,2047.57 1750.12,2023.65 1766.16,2001.61 1774.63,1989.84 1789.00,1968.28 1798.29,1956.83 1808.67,1945.52 1824.35,1929.11 1838.42,1916.25 1846.68,1910.34 1854.32,1905.46 1863.28,1901.03 1869.88,1895.98 1875.45,1889.21 1880.38,1880.88 1883.14,1873.88" allow="pedestrian motorcycle moped bicycle"/>
    <edge id="-168175019#0" from="1794680635" to="1794680492" priority="1" type="highway.track" numLanes="1" speed="5.56" shape="1932.80,3216.07 1932.61,3221.03 1936.61,3224.20 1972.30,3224.88 2003.22,3228.36 2032.75,3234.21 2065.87,3243.45 2098.21,3254.47 2130.55,3269.08 2179.29,3295.16 2197.06,3303.25 2270.74,3338.18 2335.63,3364.01 2350.59,3367.94 2358.57,3367.91 2365.13,3364.11 2373.70,3360.91 2383.07,3361.26 2587.02,3422.03 2600.41,3428.15 2609.60,3434.47 2620.18,3438.22 2641.12,3440.93 2674.02,3442.02 2761.55,3443.13 2899.74,3451.82 2944.02,3456.85 2979.93,3464.69 3038.22,3485.23" allow="pedestrian motorcycle moped bicycle"/>
    <edge id="-168175019#1" from="1794680688" to="1794680635" priority="1" type="highway.track" numLanes="1" speed="5.56" shape="2182.12,3117.32 2174.14,3124.62 2104.42,3145.52 2057.80,3156.21 2023.35,3167.26 1991.50,3182.48 1962.04,3198.87 1932.80,3216.07" allow="pedestrian motorcycle moped bicycle"/>
    <edge id="-168175020#0" from="1794680416" to="1794680537" priority="3" type="highway.residential" numLanes="1" speed="5.56" shape="2680.89,2854.78 2674.64,2867.65 2669.38,2875.60 2662.72,2882.37 2653.32,2887.86 2642.31,2891.41 2628.52,2894.48 2618.91,2897.84 2615.23,2899.90" disallow="tram rail_urban rail rail_electric rail_fast ship"/>
    <edge id="-168175020#1" from="1794680860" to="1794680416" priority="3" type="highway.residential" numLanes="1" speed="5.56" disallow="tram rail_urban rail rail_electric rail_fast ship"/>
    <edge id="-168175020#2" from="1794680764" to="1794680860" priority="3" type="highway.residential" numLanes="1" speed="5.56" shape="2760.68,2746.95 2723.89,2765.01 2712.77,2770.50 2704.55,2776.16 2697.98,2782.62 2690.98,2791.20 2686.15,2799.67 2683.54,2807.25 2681.92,2815.88 2681.36,2823.49" disallow="tram rail_urban rail rail_electric rail_fast ship"/>
    <edge id="-168175021#0" from="1794680792" to="1794680733" priority="3" type="highway.residential" numLanes="1" speed="13.89" disallow="tram rail_urban rail rail_electric rail_fast ship"/>
    <edge id="-168175021#1" from="1794680733" to="1794680792" priority="3" type="highway.residential" numLanes="1" speed="13.89" shape="2645.90,2644.26 2647.72,2640.50 2647.41,2636.35 2645.07,2632.90 2641.31,2631.08 2637.15,2631.39 2633.70,2633.73 2631.89,2637.49 2632.19,2641.64 2634.54,2645.09 2638.29,2646.91 2642.45,2646.60" disallow="tram rail_urban rail rail_electric rail_fast ship"/>
    <edge id="-168175023#0" from="1794680542" to="1794680508" priority="1" type="highway.track" numLanes="1" speed="5.56" shape="3155.42,3859.69 3188.20,3899.99 3197.46,3913.81" allow="pedestrian motorcycle moped bicycle"/>
    <edge id="-168175023#1" from="1794680540" to="1794680542" priority="1" type="highway.track" numLanes="1" speed="5.56" shape="2950.57,3636.13 2960.77,3645.79 3007.93,3680.87 3034.31,3703.44 3059.14,3735.16 3100.78,3791.28 3155.42,3859.69" allow="pedestrian motorcycle moped bicycle"/>
    <edge id="-168175024#0" from="1794680764" to="1794680725" priority="3" type="highway.residential" numLanes="1" speed="5.56" disallow="tram rail_urban rail rail_electric rail_fast ship"/>
    <edge id="-168175024#1" from="1794680597" to="1794680764" priority="3" type="highway.residential" numLanes="1" speed="5.56" disallow="tram rail_urban rail rail_electric rail_fast ship"/>
    <edge id="-168175024#2" from="1794680791" to="1794680597" priority="3" type="highway.residential" numLanes="1" speed="5.56" disallow="tram rail_urban rail rail_electric rail_fast ship"/>
    <edge id="-168175026" from="1794680860" to="1794680466" priority="3" type="highway.residential" numLanes="1" speed="5.56" disallow="tram rail_urban rail rail_electric rail_fast ship"/>
    <edge id="-168175027#0" from="1794680508" to="cluster_1794680515_1794680543_1794680853" priority="4" type="highway.unclassified" numLanes="1" speed="8.33" shape="3197.46,3913.81 3216.61,3917.93 3248.14,3928.57 3333.99,3969.84" disallow="tram rail_urban rail rail_electric rail_fast ship"/>