<?xml version="1.0" encoding="UTF-8"?>

<!-- generated on 2025-04-04 16:23:52 by Eclipse SUMO netconvert Version 1.19.0
<configuration xmlns:xsi="http://www.w3.org/2001/XMLSchema-instance" xsi:noNamespaceSchemaLocation="http://sumo.dlr.de/xsd/netconvertConfiguration.xsd">

    <input>
        <sumo-net-file value="meaux/meaux.net.xml"/>
    </input>

    <output>
        <plain-output-prefix value="meaux/meaux"/>
    </output>

    <processing>
        <geometry.min-radius.fix.railways value="false"/>
        <geometry.max-grade.fix value="false"/>
        <offset.disable-normalization value="true"/>
        <lefthand value="0"/>
    </processing>

    <tls_building>
        <tls.ignore-internal-junction-jam value="1"/>
    </tls_building>

    <junctions>
        <no-turnarounds value="true"/>
        <junctions.corner-detail value="5"/>
        <junctions.limit-turn-speed value="5.50"/>
        <rectangular-lane-cut value="0"/>
    </junctions>

    <pedestrian>
        <walkingareas value="0"/>
    </pedestrian>

</configuration>
-->

<tlLogics version="1.16" xmlns:xsi="http://www.w3.org/2001/XMLSchema-instance" xsi:noNamespaceSchemaLocation="http://sumo.dlr.de/xsd/tllogic_file.xsd">
    <tlLogic id="11579740971" type="static" programID="0" offset="0">
        <phase duration="80" state="G"/>
        <phase duration="5"  state="y"/>
        <phase duration="5"  state="r"/>
    </tlLogic>
    <tlLogic id="12319216543" type="static" programID="0" offset="0">
        <phase duration="82" state="G"/>
        <phase duration="3"  state="y"/>
        <phase duration="5"  state="r"/>
    </tlLogic>
    <tlLogic id="12338975955" type="static" programID="0" offset="0">
        <phase duration="79" state="GG"/>
        <phase duration="6"  state="yy"/>
        <phase duration="5"  state="rr"/>
    </tlLogic>
    <tlLogic id="12381881672" type="static" programID="0" offset="0">
        <phase duration="79" state="GG"/>
        <phase duration="6"  state="yy"/>
        <phase duration="5"  state="rr"/>
    </tlLogic>
    <tlLogic id="12381881673" type="static" programID="0" offset="0">
        <phase duration="79" state="GG"/>
        <phase duration="6"  state="yy"/>
        <phase duration="5"  state="rr"/>
    </tlLogic>
    <tlLogic id="12382049506" type="static" programID="0" offset="0">
        <phase duration="79" state="G"/>
        <phase duration="6"  state="y"/>
        <phase duration="5"  state="r"/>
    </tlLogic>
    <tlLogic id="12382049509" type="static" programID="0" offset="0">
        <phase duration="79" state="G"/>
        <phase duration="6"  state="y"/>
        <phase duration="5"  state="r"/>
    </tlLogic>
    <tlLogic id="12382049521" type="static" programID="0" offset="0">
        <phase duration="80" state="G"/>
        <phase duration="5"  state="y"/>
        <phase duration="5"  state="r"/>
    </tlLogic>
    <tlLogic id="12382049524" type="static" programID="0" offset="0">
        <phase duration="79" state="GGG"/>
        <phase duration="6"  state="yyy"/>
        <phase duration="5"  state="rrr"/>
    </tlLogic>
    <tlLogic id="12382049540" type="static" programID="0" offset="0">
        <phase duration="79" state="GG"/>
        <phase duration="6"  state="yy"/>
        <phase duration="5"  state="rr"/>
    </tlLogic>
    <tlLogic id="12382339973" type="static" programID="0" offset="0">
        <phase duration="82" state="G"/>
        <phase duration="3"  state="y"/>
        <phase duration="5"  state="r"/>
    </tlLogic>
    <tlLogic id="12415294588" type="static" programID="0" offset="0">
        <phase duration="80" state="G"/>
        <phase duration="5"  state="y"/>
        <phase duration="5"  state="r"/>
    </tlLogic>
    <tlLogic id="1277109104" type="static" programID="0" offset="0">
        <phase duration="80" state="G"/>
        <phase duration="5"  state="y"/>
        <phase duration="5"  state="r"/>
    </tlLogic>
    <tlLogic id="258914044" type="static" programID="0" offset="0">
        <phase duration="79" state="GG"/>
        <phase duration="6"  state="yy"/>
        <phase duration="5"  state="rr"/>
    </tlLogic>
    <tlLogic id="258914051" type="static" programID="0" offset="0">
        <phase duration="79" state="GGG"/>
        <phase duration="6"  state="yyy"/>
        <phase duration="5"  state="rrr"/>
    </tlLogic>
    <tlLogic id="259081958" type="static" programID="0" offset="0">
        <phase duration="79" state="GGG"/>
        <phase duration="6"  state="yyy"/>
        <phase duration="5"  state="rrr"/>
    </tlLogic>
    <tlLogic id="260620213" type="static" programID="0" offset="0">
        <phase duration="79" state="GG"/>
        <phase duration="6"  state="yy"/>
        <phase duration="5"  state="rr"/>
    </tlLogic>
    <tlLogic id="3550721279" type="static" programID="0" offset="0">
        <phase duration="79" state="GG"/>
        <phase duration="6"  state="yy"/>
        <phase duration="5"  state="rr"/>
    </tlLogic>
    <tlLogic id="3838769472" type="static" programID="0" offset="0">
        <phase duration="79" state="G"/>
        <phase duration="6"  state="y"/>
        <phase duration="5"  state="r"/>
    </tlLogic>
    <tlLogic id="461609862" type="static" programID="0" offset="0">
        <phase duration="79" state="G"/>
        <phase duration="6"  state="y"/>
        <phase duration="5"  state="r"/>
    </tlLogic>
    <tlLogic id="461609864" type="static" programID="0" offset="0">
        <phase duration="79" state="GG"/>
        <phase duration="6"  state="yy"/>
        <phase duration="5"  state="rr"/>
    </tlLogic>
    <tlLogic id="461611005" type="static" programID="0" offset="0">
        <phase duration="79" state="GG"/>
        <phase duration="6"  state="yy"/>
        <phase duration="5"  state="rr"/>
    </tlLogic>
    <tlLogic id="5613916664" type="static" programID="0" offset="0">
        <phase duration="82" state="GG"/>
        <phase duration="3"  state="yy"/>
        <phase duration="5"  state="rr"/>
    </tlLogic>
    <tlLogic id="6285626422" type="static" programID="0" offset="0">
        <phase duration="79" state="GG"/>
        <phase duration="6"  state="yy"/>
        <phase duration="5"  state="rr"/>
    </tlLogic>
    <tlLogic id="6537061495" type="static" programID="0" offset="0">
        <phase duration="82" state="GgGg"/>
        <phase duration="3"  state="yyyy"/>
        <phase duration="5"  state="rrrr"/>
    </tlLogic>
    <tlLogic id="6537084569" type="static" programID="0" offset="0">
        <phase duration="80" state="G"/>
        <phase duration="5"  state="y"/>
        <phase duration="5"  state="r"/>
    </tlLogic>
    <tlLogic id="6537094563" type="static" programID="0" offset="0">
        <phase duration="80" state="G"/>
        <phase duration="5"  state="y"/>
        <phase duration="5"  state="r"/>
    </tlLogic>
    <tlLogic id="6565704596" type="static" programID="0" offset="0">
        <phase duration="82" state="GG"/>
        <phase duration="3"  state="yy"/>
        <phase duration="5"  state="rr"/>
    </tlLogic>
    <tlLogic id="7302189610" type="static" programID="0" offset="0">
        <phase duration="79" state="GGG"/>
        <phase duration="6"  state="yyy"/>
        <phase duration="5"  state="rrr"/>
    </tlLogic>
    <tlLogic id="7302194673" type="static" programID="0" offset="0">
        <phase duration="82" state="GG"/>
        <phase duration="3"  state="yy"/>
        <phase duration="5"  state="rr"/>
    </tlLogic>
    <tlLogic id="7302201485" type="static" programID="0" offset="0">
        <phase duration="82" state="GG"/>
        <phase duration="3"  state="yy"/>
        <phase duration="5"  state="rr"/>
    </tlLogic>
    <tlLogic id="7302493459" type="static" programID="0" offset="0">
        <phase duration="79" state="GGG"/>
        <phase duration="6"  state="yyy"/>
        <phase duration="5"  state="rrr"/>
    </tlLogic>
    <tlLogic id="7302505913" type="static" programID="0" offset="0">
        <phase duration="80" state="G"/>
        <phase duration="5"  state="y"/>
        <phase duration="5"  state="r"/>
    </tlLogic>
    <tlLogic id="7302513901" type="static" programID="0" offset="0">
        <phase duration="80" state="G"/>
        <phase duration="5"  state="y"/>
        <phase duration="5"  state="r"/>
    </tlLogic>
    <tlLogic id="7302515219" type="static" programID="0" offset="0">
        <phase duration="80" state="G"/>
        <phase duration="5"  state="y"/>
        <phase duration="5"  state="r"/>
    </tlLogic>
    <tlLogic id="7302517640" type="static" programID="0" offset="0">
        <phase duration="80" state="G"/>
        <phase duration="5"  state="y"/>
        <phase duration="5"  state="r"/>
    </tlLogic>
    <tlLogic id="7309084515" type="static" programID="0" offset="0">
        <phase duration="82" state="GG"/>
        <phase duration="3"  state="yy"/>
        <phase duration="5"  state="rr"/>
    </tlLogic>
    <tlLogic id="7695277199" type="static" programID="0" offset="0">
        <phase duration="82" state="GG"/>
        <phase duration="3"  state="yy"/>
        <phase duration="5"  state="rr"/>
    </tlLogic>
    <tlLogic id="7695309911" type="static" programID="0" offset="0">
        <phase duration="79" state="GG"/>
        <phase duration="6"  state="yy"/>
        <phase duration="5"  state="rr"/>
    </tlLogic>
    <tlLogic id="9293992910" type="static" programID="0" offset="0">
        <phase duration="82" state="GG"/>
        <phase duration="3"  state="yy"/>
        <phase duration="5"  state="rr"/>
    </tlLogic>
    <tlLogic id="9731974992" type="static" programID="0" offset="0">
        <phase duration="82" state="GG"/>
        <phase duration="3"  state="yy"/>
        <phase duration="5"  state="rr"/>
    </tlLogic>
    <tlLogic id="990471005" type="static" programID="0" offset="0">
        <phase duration="40" state="GGggrrrrGGggrrrr"/>
        <phase duration="5"  state="yyyyrrrryyyyrrrr"/>
        <phase duration="40" state="rrrrGGggrrrrGGgg"/>
        <phase duration="5"  state="rrrryyyyrrrryyyy"/>
    </tlLogic>
    <tlLogic id="GS_1181581340" type="static" programID="0" offset="0">
        <phase duration="24" state="rrrrGGggrrrrrrrrGGgg"/>
        <phase duration="6"  state="rrrryyyyrrrrrrrryyyy"/>
        <phase duration="24" state="GGggrrrrGGggrrrrrrrr"/>
        <phase duration="6"  state="yyyyrrrryyyyrrrrrrrr"/>
        <phase duration="24" state="rrrrrrrrrrrrGGGGrrrr"/>
        <phase duration="6"  state="rrrrrrrrrrrryyyyrrrr"/>
    </tlLogic>
    <tlLogic id="GS_1183478938" type="static" programID="0" offset="0">
        <phase duration="42" state="GggrrrGGg"/>
        <phase duration="3"  state="yyyrrryyy"/>
        <phase duration="42" state="rrrGGgGrr"/>
        <phase duration="3"  state="rrryyyyrr"/>
    </tlLogic>
    <tlLogic id="GS_1277094912" type="static" programID="0" offset="0">
        <phase duration="40" state="GGgrrrGgg"/>
        <phase duration="5"  state="yyyrrryyy"/>
        <phase duration="40" state="rrrGGGrrr"/>
        <phase duration="5"  state="rrryyyrrr"/>
    </tlLogic>
    <tlLogic id="GS_1878447324" type="static" programID="0" offset="0">
        <phase duration="39" state="rrGG"/>
        <phase duration="6"  state="rryy"/>
        <phase duration="39" state="GGrr"/>
        <phase duration="6"  state="yyrr"/>
    </tlLogic>
    <tlLogic id="GS_307516491" type="static" programID="0" offset="0">
        <phase duration="40" state="GGgGrr"/>
        <phase duration="5"  state="yyyyrr"/>
        <phase duration="40" state="rrrGGG"/>
        <phase duration="5"  state="rrryyy"/>
    </tlLogic>
    <tlLogic id="GS_307516506" type="static" programID="0" offset="0">
        <phase duration="42" state="GGrr"/>
        <phase duration="3"  state="yyrr"/>
        <phase duration="42" state="rrGG"/>
        <phase duration="3"  state="rryy"/>
    </tlLogic>
    <tlLogic id="GS_3842874895" type="static" programID="0" offset="0">
        <phase duration="42" state="GgGrr"/>
        <phase duration="3"  state="yyyrr"/>
        <phase duration="42" state="rrGGG"/>
        <phase duration="3"  state="rryyy"/>
    </tlLogic>
    <tlLogic id="GS_451945087" type="static" programID="0" offset="0">
        <phase duration="80" state="GggGGg"/>
        <phase duration="5"  state="yyyyyy"/>
        <phase duration="5"  state="rrrrrr"/>
    </tlLogic>
    <tlLogic id="GS_cluster_1277299834_1277299943" type="static" programID="0" offset="0">
        <phase duration="39" state="rrrrGGggrrrrGGgg"/>
        <phase duration="6"  state="rrrryyyyrrrryyyy"/>
        <phase duration="39" state="GGggrrrrGGggrrrr"/>
        <phase duration="6"  state="yyyyrrrryyyyrrrr"/>
    </tlLogic>
    <tlLogic id="GS_cluster_251120572_251120858_462245782_9415156164" type="static" programID="0" offset="0">
        <phase duration="24" state="rrrrGGggrrrrGGgg"/>
        <phase duration="6"  state="rrrryyyyrrrryyyy"/>
        <phase duration="24" state="GGGGrrrrrrrrrrrr"/>
        <phase duration="6"  state="yyyyrrrrrrrrrrrr"/>
        <phase duration="24" state="rrrrrrrrGGGgGrrr"/>
        <phase duration="6"  state="rrrrrrrryyyyyrrr"/>
    </tlLogic>
    <tlLogic id="GS_cluster_462245770_6536640168_6536640169" type="static" programID="0" offset="0">
        <phase duration="27" state="GGGGrrrrrrrrrrr"/>
        <phase duration="3"  state="yyyyrrrrrrrrrrr"/>
        <phase duration="27" state="rrrrrrrgggGGGGG"/>
        <phase duration="3"  state="rrrrrrryyyyyyyy"/>
        <phase duration="27" state="rrrGGGGrrrrrrrr"/>
        <phase duration="3"  state="rrryyyyrrrrrrrr"/>
    </tlLogic>
    <tlLogic id="cluster_10599354818_11577654107_11577654119_11953398791_#10more" type="static" programID="0" offset="0">
        <phase duration="18" state="GrrrrrrgGGggggGGggGGGggggGggrrrrrrrrrrrrGrrrrrrrrr"/>
        <phase duration="3"  state="yrrrrrryyyyyyyyyyyyyyyyyyyyyrrrrrrrrrrrryrrrrrrrrr"/>
        <phase duration="20" state="rrrrrrrrrrrrrrrrrrrrrrrrrrrrGGggggGggGggGGrrrrrrrr"/>
        <phase duration="3"  state="rrrrrrrrrrrrrrrrrrrrrrrrrrrryyyyyyyyyyyyyyrrrrrrrr"/>
        <phase duration="20" state="GGGGGGGGrrrrrrrrrrrrrrrrrrrrrrrrrrrrrrrrrrrrrrrrrr"/>
        <phase duration="3"  state="yyyyyyyyrrrrrrrrrrrrrrrrrrrrrrrrrrrrrrrrrrrrrrrrrr"/>
        <phase duration="20" state="GrrrrrrrrrrrrrrrrrrrrrrrrrrrrrrrrrrrrrrrrrGGGGGGGg"/>
        <phase duration="3"  state="yrrrrrrrrrrrrrrrrrrrrrrrrrrrrrrrrrrrrrrrrryyyyyyyy"/>
    </tlLogic>
    <tlLogic id="cluster_10599354836_10599354837_12301362912_1796947321_#4more" type="static" programID="0" offset="0">
        <phase duration="39" state="rrrrggggGGGgGggg"/>
        <phase duration="6"  state="rrrryyyyyyyyyyyy"/>
        <phase duration="39" state="GGGgGrrrrrrrrrrr"/>
        <phase duration="6"  state="yyyyyrrrrrrrrrrr"/>
    </tlLogic>
    <tlLogic id="cluster_10599354839_12013375722_12301362921_12301362922_#20more" type="static" programID="0" offset="0">
        <phase duration="12" state="rrrrrrrrggggggggGGGrrrrrrrrrrrrrrrrrrrrrrrrrrrrrggggggggGGGGGrrr"/>
        <phase duration="6"  state="rrrrrrrrggggggggyyyrrrrrrrrrrrrrrrrrrrrrrrrrrrrrggggggggyyyyyrrr"/>
        <phase duration="6"  state="rrrrrrrrggggggggrrrGGGGgrrrrrrrrrrrrrrrrrrrrrrrrggggggggrrrrrGGg"/>
        <phase duration="6"  state="rrrrrrrryyyyyyyyrrryyyyyrrrrrrrrrrrrrrrrrrrrrrrryyyyyyyyrrrrryyy"/>
        <phase duration="14" state="GGGGGgggrrrrrrrrrrrrrrrrGGGgggggrrrrrrrrrrrrrrrrrrrrrrrrrrrrrrrr"/>
        <phase duration="6"  state="yyyyyyyyrrrrrrrrrrrrrrrryyyyyyyyrrrrrrrrrrrrrrrrrrrrrrrrrrrrrrrr"/>
        <phase duration="14" state="rrrrrrrrrrrrrrrrrrrrrrrrrrrrrrrrrrrrrrrrGGGGGGGgGrrrrrrrrrrrrrrr"/>
        <phase duration="6"  state="rrrrrrrrrrrrrrrrrrrrrrrrrrrrrrrrrrrrrrrryyyyyyyyyrrrrrrrrrrrrrrr"/>
        <phase duration="14" state="rrrrrrrrrrrrrrrrrrrrrrrrrrrrrrrrGGGGGGGgGrrrrrrrrrrrrrrrrrrrrrrr"/>
        <phase duration="6"  state="rrrrrrrrrrrrrrrrrrrrrrrrrrrrrrrryyyyyyyyyrrrrrrrrrrrrrrrrrrrrrrr"/>
    </tlLogic>
    <tlLogic id="cluster_10741053285_10741053286_10741053287_10741053299_#5more" type="static" programID="0" offset="0">
        <phase duration="15" state="rrrrrrrrrrrrrrrrrrrrgggggGGGGG"/>
        <phase duration="6"  state="rrrrrrrrrrrrrrrrrrrryyyyyyyyyy"/>
        <phase duration="17" state="rrrrrGGGggrrrrrGGgggrrrrrrrrrr"/>
        <phase duration="6"  state="rrrrryyyyyrrrrryyyyyrrrrrrrrrr"/>
        <phase duration="17" state="GGGGgGrrrrrrrrrrrrrrrrrrrrrrrr"/>
        <phase duration="6"  state="yyyyyyrrrrrrrrrrrrrrrrrrrrrrrr"/>
        <phase duration="17" state="rrrrrrrrrrGGGGgGrrrrrrrrrrrrrr"/>
        <phase duration="6"  state="rrrrrrrrrryyyyyyrrrrrrrrrrrrrr"/>
    </tlLogic>
    <tlLogic id="cluster_11409407582_12319216544_12319216545_12319216546_#4more" type="static" programID="0" offset="0">
        <phase duration="79" state="ggGgGG"/>
        <phase duration="6"  state="yyyyyy"/>
        <phase duration="5"  state="rrrrrr"/>
    </tlLogic>
    <tlLogic id="cluster_11410051398_270315698_5904203914_5904203915_#1more" type="static" programID="0" offset="0">
        <phase duration="40" state="GgrrGg"/>
        <phase duration="5"  state="yyrryy"/>
        <phase duration="40" state="rrGGrr"/>
        <phase duration="5"  state="rryyrr"/>
    </tlLogic>
    <tlLogic id="cluster_11560971072_11560971079_259081942_259081943_#1more" type="static" programID="0" offset="0">
        <phase duration="24" state="GGggGrrrGGgrrrrrr"/>
        <phase duration="6"  state="yyyyyrrryyyrrrrrr"/>
        <phase duration="24" state="rrrrrrrrrrrGGGGGG"/>
        <phase duration="6"  state="rrrrrrrrrrryyyyyy"/>
        <phase duration="24" state="GrrrGGGGrrrrrrrrr"/>
        <phase duration="6"  state="yrrryyyyrrrrrrrrr"/>
    </tlLogic>
    <tlLogic id="cluster_11560971082_11560971083" type="static" programID="0" offset="0">
        <phase duration="27" state="rrrrrrrrggggGGGGG"/>
        <phase duration="3"  state="rrrrrrrryyyyyyyyy"/>
        <phase duration="27" state="rrrrGGGgGrrrrrrrr"/>
        <phase duration="3"  state="rrrryyyyyrrrrrrrr"/>
        <phase duration="27" state="GGGGrrrrrrrrrrrrr"/>
        <phase duration="3"  state="yyyyrrrrrrrrrrrrr"/>
    </tlLogic>
    <tlLogic id="cluster_11955828955_12412695927_12412695929_12412695943_#5more" type="static" programID="0" offset="0">
        <phase duration="24" state="rrrrrGGgggrrrrrGrrrrrrGGGgg"/>
        <phase duration="6"  state="rrrrryyyyyrrrrryrrrrrryyyyy"/>
        <phase duration="24" state="gggggrrrrrGGGGgGrrrrrrrrrrr"/>
        <phase duration="6"  state="yyyyyrrrrryyyyyyrrrrrrrrrrr"/>
        <phase duration="24" state="rrrrrrrrrrrrrrrrGGGGGGrrrrr"/>
        <phase duration="6"  state="rrrrrrrrrrrrrrrryyyyyyrrrrr"/>
    </tlLogic>
    <tlLogic id="cluster_12301390256_1468821934_1468821949_1468821958_#7more" type="static" programID="0" offset="0">
        <phase duration="33" state="GGGrrrrrggggggggggggggggrrrrrrrrggggggggggggggggGGrGGrrrrrrrrrrrrrrrrrrr"/>
        <phase duration="6"  state="yyyrrrrrggggggggggggggggrrrrrrrrggggggggggggggggyyryyrrrrrrrrrrrrrrrrrrr"/>
        <phase duration="6"  state="rrrggGggggggggggggggggggrrrrrrrrggggggggggggggggrrgrrGGgrrrrrrrrrrrrrrrr"/>
        <phase duration="6"  state="rrryyyyyyyyyyyyyyyyyyyyyrrrrrrrryyyyyyyyyyyyyyyyrryrryyyrrrrrrrrrrrrrrrr"/>
        <phase duration="33" state="rrrrrrrrrrrrrrrrrrrrrrrrGGGGggggrrrrrrrrrrrrrrrrrrrrrrrrGGGgggggGggggggg"/>
        <phase duration="6"  state="rrrrrrrrrrrrrrrrrrrrrrrryyyyyyyyrrrrrrrrrrrrrrrrrrrrrrrryyyyyyyyyyyyyyyy"/>
    </tlLogic>
    <tlLogic id="cluster_12383993988_1277109111_1579342485_3553454718_#6more" type="static" programID="0" offset="0">
        <phase duration="16" state="rrrrrrrrggggggggggGGGgggrrrrrrrrGGGgggggggggggggrrrrrrrrrrrrrrrr"/>
        <phase duration="5"  state="rrrrrrrryyyyyyyyyyyyyyyyrrrrrrrryyyyyyyyyyyyyyyyrrrrrrrrrrrrrrrr"/>
        <phase duration="18" state="rrrrrrrrrrrrrrrrrrrrrrrrGGGGggggrrrrrrrrrrrrrrrrrrrrrrrrGGGGgggg"/>
        <phase duration="5"  state="rrrrrrrrrrrrrrrrrrrrrrrryyyyyyyyrrrrrrrrrrrrrrrrrrrrrrrryyyyyyyy"/>
        <phase duration="18" state="GGGGGGGgGrrrrrrrrrrrrrrrrrrrrrrrrrrrrrrrrrrrrrrrrrrrrrrrrrrrrrrr"/>
        <phase duration="5"  state="yyyyyyyyyrrrrrrrrrrrrrrrrrrrrrrrrrrrrrrrrrrrrrrrrrrrrrrrrrrrrrrr"/>
        <phase duration="18" state="rrrrrrrrrrrrrrrrrrrrrrrrrrrrrrrrrrrrrrrrrrrrrrrrGGGGGGGgGrrrrrrr"/>
        <phase duration="5"  state="rrrrrrrrrrrrrrrrrrrrrrrrrrrrrrrrrrrrrrrrrrrrrrrryyyyyyyyyrrrrrrr"/>
    </tlLogic>
    <tlLogic id="cluster_12406569347_1277094988_1579342404_1579342406_#5more" type="static" programID="0" offset="0">
        <phase duration="40" state="ggggggrrrrrrggggggggGGggGGgggg"/>
        <phase duration="5"  state="yyyyyyrrrrrryyyyyyyyyyyyyyyyyy"/>
        <phase duration="40" state="rrrrrrGGGGGgGrrrrrrrrrrrrrrrrr"/>
        <phase duration="5"  state="rrrrrryyyyyyyrrrrrrrrrrrrrrrrr"/>
    </tlLogic>
    <tlLogic id="cluster_12406576519_12411819632_460473959_460473966_#5more" type="static" programID="0" offset="0">
        <phase duration="23" state="rrrrrGGgggrrrrrrrrrrGGGgg"/>
        <phase duration="5"  state="rrrrryyyyyrrrrrrrrrryyyyy"/>
        <phase duration="25" state="GGgggrrrrrrrrrrGGGggrrrrr"/>
        <phase duration="5"  state="yyyyyrrrrrrrrrryyyyyrrrrr"/>
        <phase duration="1"  state="rrrrrrrrrrrrrrrrrrrrrrrrr"/>
        <phase duration="25" state="rrrrrrrrrrGGGGgGrrrrrrrrr"/>
        <phase duration="5"  state="rrrrrrrrrryyyyyyrrrrrrrrr"/>
        <phase duration="1"  state="rrrrrrrrrrrrrrrrrrrrrrrrr"/>
    </tlLogic>
    <tlLogic id="cluster_12415388687_2302644287_4963306089_9734221018_#1more" type="static" programID="0" offset="0">
        <phase duration="39" state="GgggGGGgrrrrrrrr"/>
        <phase duration="6"  state="yyyyyyyyrrrrrrrr"/>
        <phase duration="39" state="rrrrrrrrggggGGGG"/>
        <phase duration="6"  state="rrrrrrrryyyyyyyy"/>
    </tlLogic>
    <tlLogic id="cluster_1455755620_461609868_7302470448" type="static" programID="0" offset="0">
        <phase duration="39" state="rG"/>
        <phase duration="6"  state="ry"/>
        <phase duration="39" state="Gr"/>
        <phase duration="6"  state="yr"/>
    </tlLogic>
    <tlLogic id="cluster_270315692_5002933056_7695182453_7695273885" type="static" programID="0" offset="0">
        <phase duration="33" state="rrrrGGGGrr"/>
        <phase duration="6"  state="rrrryyyyrr"/>
        <phase duration="33" state="GGGgGrrrgg"/>
        <phase duration="6"  state="yyyyyrrrgg"/>
        <phase duration="6"  state="rrrrrrrrGG"/>
        <phase duration="6"  state="rrrrrrrryy"/>
    </tlLogic>
    <tlLogic id="cluster_270438005_7308927365_7308950390" type="static" programID="0" offset="0">
        <phase duration="79" state="GggGGg"/>
        <phase duration="6"  state="yyyyyy"/>
        <phase duration="5"  state="rrrrrr"/>
    </tlLogic>
    <tlLogic id="cluster_292392344_4007731410_460004372_460004385_#2more" type="static" programID="0" offset="0">
        <phase duration="35" state="GGggrrrrGGGggrrrr"/>
        <phase duration="5"  state="yyyyrrrryyyyyrrrr"/>
        <phase duration="34" state="rrrrGGrrrrrrrGGgg"/>
        <phase duration="5"  state="rrrryyrrrrrrryygg"/>
        <phase duration="6"  state="rrrrrrGGrrrrrrrGG"/>
        <phase duration="5"  state="rrrrrryyrrrrrrryy"/>
    </tlLogic>
    <tlLogic id="cluster_462239852_7302065095_7302083238_7302104424_#3more" type="static" programID="0" offset="0">
        <phase duration="18" state="rrGGGGrrrrrr"/>
        <phase duration="3"  state="rryyyyrrrrrr"/>
        <phase duration="20" state="rrrrrrGGGrrr"/>
        <phase duration="3"  state="rrrrrryyyrrr"/>
        <phase duration="20" state="GGrrrGrrrrrr"/>
        <phase duration="3"  state="yyrrryrrrrrr"/>
        <phase duration="20" state="rrrrrrrrrGGG"/>
        <phase duration="3"  state="rrrrrrrrryyy"/>
    </tlLogic>
    <tlLogic id="cluster_6834461358_7306352543_7306365750_919635877_#1more" type="static" programID="0" offset="0">
        <phase duration="25" state="rrrrGGggGGggrrrr"/>
        <phase duration="5"  state="rrrryyyyyyyyrrrr"/>
        <phase duration="25" state="GGGGrrrrrrrrrrrr"/>
        <phase duration="5"  state="yyyyrrrrrrrrrrrr"/>
        <phase duration="25" state="GrrrrrrrrrrrGGGg"/>
        <phase duration="5"  state="yrrrrrrrrrrryyyy"/>
    </tlLogic>
    <tlLogic id="joinedS_12299194497_12299253501_7303769836_7303900856_#2more" type="static" programID="0" offset="0">
        <phase duration="31" state="GrrrrrrrrrrrrrrGGrrr"/>
        <phase duration="6"  state="yrrrrrrrrrrrrrryyrrr"/>
        <phase duration="31" state="rGrrrrrrrrrrrrrrrrrr"/>
        <phase duration="6"  state="ryrrrrrrrrrrrrrrrrrr"/>
        <phase duration="31" state="rrGGrrrrrrrrrrrrrrrr"/>
        <phase duration="6"  state="rryyrrrrrrrrrrrrrrrr"/>
        <phase duration="31" state="rrrrGGGrrGGGrrrrrrrr"/>
        <phase duration="6"  state="rrrryyyrryyyrrrrrrrr"/>
        <phase duration="31" state="rrrrrrrGrrrrrrrrrrrr"/>
        <phase duration="6"  state="rrrrrrryrrrrrrrrrrrr"/>
        <phase duration="31" state="rrrrrrrrGrrrrrrrrrrr"/>
        <phase duration="6"  state="rrrrrrrryrrrrrrrrrrr"/>
        <phase duration="31" state="rrrrrrrrrrrrGGGrrrrr"/>
        <phase duration="6"  state="rrrrrrrrrrrryyyrrrrr"/>
        <phase duration="31" state="rrrrrrrrrrrrrrrrrGGG"/>
        <phase duration="6"  state="rrrrrrrrrrrrrrrrryyy"/>
    </tlLogic>
    <tlLogic id="joinedS_12301320452_251136202_7308943220_cluster_12301320480_5002933049" type="static" programID="0" offset="0">
        <phase duration="12" state="GGGrrrrrrrrrrrrrr"/>
        <phase duration="6"  state="yyyrrrrrrrrrrrrrr"/>
        <phase duration="12" state="rrrGGGGrrrrrrrrrr"/>
        <phase duration="6"  state="rrryyyyrrrrrrrrrr"/>
        <phase duration="12" state="rrrrrrrGrrrrrrGGG"/>
        <phase duration="6"  state="rrrrrrryrrrrrryyy"/>
        <phase duration="12" state="rrrrrrrrGGGrrrrrr"/>
        <phase duration="6"  state="rrrrrrrryyyrrrrrr"/>
        <phase duration="12" state="rrrrrrrrrrrGGGrrr"/>
        <phase duration="6"  state="rrrrrrrrrrryyyrrr"/>
    </tlLogic>
    <tlLogic id="joinedS_12382049567_12382049568_9893370457" type="static" programID="0" offset="0">
        <phase duration="39" state="GGGr"/>
        <phase duration="6"  state="yyyr"/>
        <phase duration="39" state="GGrG"/>
        <phase duration="6"  state="yyry"/>
    </tlLogic>
    <tlLogic id="joinedS_12400405874_9724966044_cluster_12400405873_1277094944_1763582354_460459820_#3more" type="static" programID="0" offset="0">
        <phase duration="13" state="GrrrrrGrrrrrrrrrrrr"/>
        <phase duration="5"  state="yrrrrryrrrrrrrrrrrr"/>
        <phase duration="13" state="rGGGGGrrrrrrrrrrrrr"/>
        <phase duration="5"  state="ryyyyyrrrrrrrrrrrrr"/>
        <phase duration="13" state="rrrrrrrGGGGrrrrrrrr"/>
        <phase duration="5"  state="rrrrrrryyyyrrrrrrrr"/>
        <phase duration="13" state="rrrrrrrrrrrGGGGrrrr"/>
        <phase duration="5"  state="rrrrrrrrrrryyyyrrrr"/>
        <phase duration="13" state="rrrrrrrrrrrrrrrGGGG"/>
        <phase duration="5"  state="rrrrrrrrrrrrrrryyyy"/>
    </tlLogic>
    <tlLogic id="joinedS_12430435683_12430465908_12430603601_12430777044_#6more" type="static" programID="0" offset="0">
        <phase duration="31" state="rGrGgggGggGggGrrGgggGggGrGgggrrrrGggGrGggggrgrrgggggggggrrgrrggggggGrrrGgrgggggggGrrgggggGGgggggg"/>
        <phase duration="6"  state="ryryyyyyyyyyyyrryyyyyyyyryyyyrrrryyyyryyyyyryrryyyyyyyyyrryrryyyyyyyrrryyryyyyyyyyrryyyyyyyyyyyyy"/>
        <phase duration="31" state="rGGGrrrrrrrrrrrrrrrrrrrrrrrrrGrrrrrrrrrrrrrrrrrrrrrrrrrrrrrrrrrrrrrrrrrrrrGGGGGGrrrrrrrrrrrrrrrrr"/>
        <phase duration="6"  state="ryyyrrrrrrrrrrrrrrrrrrrrrrrrryrrrrrrrrrrrrrrrrrrrrrrrrrrrrrrrrrrrrrrrrrrrryyyyyyrrrrrrrrrrrrrrrrr"/>
        <phase duration="31" state="rrrrrrrrrrGGgrrrrGggrrrGGGrrrrGrrrrrrrrrrrrrrrrrrrrrrrrrrrrrrrrrrrrrrrrrrrrrrrrrrrrrrGGGGrrrrrrrr"/>
        <phase duration="6"  state="rrrrrrrrrryyyrrrryyyrrryyyrrrryrrrrrrrrrrrrrrrrrrrrrrrrrrrrrrrrrrrrrrrrrrrrrrrrrrrrrryyyyrrrrrrrr"/>
        <phase duration="31" state="rrrrrrrrrrrrrGGGGrrrrrrrrrGGGrrGGrrrrrrrrrrrrrrrrrrrrrrrrrrrrrrrrrrrrrrrrrrrrrrrrrrrrrrrrGGGGrrrr"/>
        <phase duration="6"  state="rrrrrrrrrrrrryyyyrrrrrrrrryyyrryyrrrrrrrrrrrrrrrrrrrrrrrrrrrrrrrrrrrrrrrrrrrrrrrrrrrrrrrryyyyrrrr"/>
        <phase duration="31" state="GrrrrrrrrrrrrrrrrrrrrrrrrrrrrrrrrrrrGGGrrrrrrrrrrrrrrrrrrrrrrrrrrrrrrrrrrrrrrrrrrrrrrrrrrrrrrrrrr"/>
        <phase duration="6"  state="yrrrrrrrrrrrrrrrrrrrrrrrrrrrrrrrrrrryyyrrrrrrrrrrrrrrrrrrrrrrrrrrrrrrrrrrrrrrrrrrrrrrrrrrrrrrrrrr"/>
        <phase duration="31" state="rrrrGGGrrrrrrrrrrrrrrrrrrrrrrrrrrrrrrrrrrrGGGGGGrrrrrrrrrrrrrrrrrrrrrrrrrrrrrrrgrrrrrrrrrrrrrrrrr"/>
        <phase duration="6"  state="rrrryyyrrrrrrrrrrrrrrrrrrrrrrrrrrrrrrrrrrryyyyyyrrrrrrrrrrrrrrrrrrrrrrrrrrrrrrryrrrrrrrrrrrrrrrrr"/>
        <phase duration="31" state="rGrGgggGggGggGrrGgggGggGrGgggrrrrGggGrGggggrgrrgggggggggrrgrrggggggGrrrGgrgggggggGrrgggggGGgggggg"/>
        <phase duration="6"  state="ryryyyyyyyyyyyrryyyyyyyyryyyyrrrryyyyryyyyyryrryyyyyyyyyrryrryyyyyyyrrryyryyyyyyyyrryyyyyyyyyyyyy"/>
        <phase duration="31" state="rrrrGGGrrrrrrrrrrrrrrrrrrrrrrrrrrrrrrrrrrrrrrrrrrrrrrrGGGGGGGrrrrrrrrrrrrrrrrrrrrrrrrrrrrrrrrrrrr"/>
        <phase duration="6"  state="rrrryyyrrrrrrrrrrrrrrrrrrrrrrrrrrrrrrrrrrrrrrrrrrrrrrryyyyyyyrrrrrrrrrrrrrrrrrrrrrrrrrrrrrrrrrrrr"/>
        <phase duration="31" state="rrrrGGGrrrrrrrrrrrrrrrrrrrrrrrrrrrrrrrrrrrrrrrrrrrrrrrrrrrrrrrrrrrrGGGGGGGrrrrrrrrrrrrrrrrrrrrrrr"/>
        <phase duration="6"  state="rrrryyyrrrrrrrrrrrrrrrrrrrrrrrrrrrrrrrrrrrrrrrrrrrrrrrrrrrrrrrrrrrryyyyyyyrrrrrrrrrrrrrrrrrrrrrrr"/>
        <phase duration="31" state="rrrrrrrrrrGGgrrrrGggrrrrrrGGGrrrrrrrrrrrrrrrrrrrrrrrrrrrrrrrrrrrrrrrrrrrrrrrrrrrGGGGGrrrrrrrrrrrr"/>