<?xml version="1.0" encoding="UTF-8"?>

<!-- generated on 2025-04-09 00:49:26 by Eclipse SUMO netconvert Version 1.19.0
<configuration xmlns:xsi="http://www.w3.org/2001/XMLSchema-instance" xsi:noNamespaceSchemaLocation="http://sumo.dlr.de/xsd/netconvertConfiguration.xsd">

    <input>
        <sumo-net-file value="meaux/meaux.net.xml"/>
    </input>

    <output>
        <plain-output-prefix value="meaux/meaux"/>
    </output>

    <processing>
        <geometry.min-radius.fix.railways value="false"/>
        <geometry.max-grade.fix value="false"/>
        <offset.disable-normalization value="true"/>
        <lefthand value="0"/>
    </processing>

    <tls_building>
        <tls.ignore-internal-junction-jam value="1"/>
    </tls_building>

    <junctions>
        <no-turnarounds value="true"/>
        <junctions.corner-detail value="5"/>
        <junctions.limit-turn-speed value="5.50"/>
        <rectangular-lane-cut value="0"/>
    </junctions>

    <pedestrian>
        <walkingareas value="0"/>
    </pedestrian>

</configuration>
-->

<connections version="1.16" xmlns:xsi="http://www.w3.org/2001/XMLSchema-instance" xsi:noNamespaceSchemaLocation="http://sumo.dlr.de/xsd/connections_file.xsd">
    <connection from="-1002140132" to="-937371296#3" fromLane="0" toLane="0" keepClear="0"/>

    <connection from="-1002414128" to="712019205#5" fromLane="0" toLane="0"/>
    <connection from="-1002414128" to="-712019205#4" fromLane="0" toLane="0"/>
    <connection from="-1002414128" to="1002414128" fromLane="0" toLane="0"/>

    <connection from="-1002651740#0" to="-164647877#20" fromLane="0" toLane="0"/>
    <connection from="-1002651740#0" to="-1002651741#6" fromLane="0" toLane="0"/>
    <connection from="-1002651740#0" to="164647877#0" fromLane="0" toLane="0"/>
    <connection from="-1002651740#0" to="1002651740#0" fromLane="0" toLane="0"/>

    <connection from="-1002651740#1" to="-1002651740#0" fromLane="0" toLane="0"/>
    <connection from="-1002651740#1" to="1002651740#1" fromLane="0" toLane="0"/>

    <connection from="-1002651741#0" to="164647877#10" fromLane="0" toLane="0"/>
    <connection from="-1002651741#0" to="-164647877#9" fromLane="0" toLane="0"/>
    <connection from="-1002651741#0" to="-691962969" fromLane="0" toLane="0"/>
    <connection from="-1002651741#0" to="1002651741#0" fromLane="0" toLane="0"/>

    <connection from="-1002651741#1" to="691962968#1" fromLane="0" toLane="0"/>
    <connection from="-1002651741#1" to="-1002651741#0" fromLane="0" toLane="0"/>
    <connection from="-1002651741#1" to="-691962968#0" fromLane="0" toLane="0"/>
    <connection from="-1002651741#1" to="1002651741#1" fromLane="0" toLane="0"/>

    <connection from="-1002651741#2" to="691962967#1" fromLane="0" toLane="0"/>
    <connection from="-1002651741#2" to="-1002651741#1" fromLane="0" toLane="0"/>
    <connection from="-1002651741#2" to="-691962967#0" fromLane="0" toLane="0"/>
    <connection from="-1002651741#2" to="1002651741#2" fromLane="0" toLane="0"/>

    <connection from="-1002651741#3" to="691962966#1" fromLane="0" toLane="0"/>
    <connection from="-1002651741#3" to="-1002651741#2" fromLane="0" toLane="0"/>
    <connection from="-1002651741#3" to="-691962966#0" fromLane="0" toLane="0"/>
    <connection from="-1002651741#3" to="1002651741#3" fromLane="0" toLane="0"/>

    <connection from="-1002651741#4" to="691962965#1" fromLane="0" toLane="0"/>
    <connection from="-1002651741#4" to="-1002651741#3" fromLane="0" toLane="0"/>
    <connection from="-1002651741#4" to="-691962965#0" fromLane="0" toLane="0"/>
    <connection from="-1002651741#4" to="1002651741#4" fromLane="0" toLane="0"/>

    <connection from="-1002651741#5" to="691962964#1" fromLane="0" toLane="0"/>
    <connection from="-1002651741#5" to="-1002651741#4" fromLane="0" toLane="0"/>
    <connection from="-1002651741#5" to="-691962964#0" fromLane="0" toLane="0"/>
    <connection from="-1002651741#5" to="1002651741#5" fromLane="0" toLane="0"/>

    <connection from="-1002651741#6" to="691962963#1" fromLane="0" toLane="0"/>
    <connection from="-1002651741#6" to="-1002651741#5" fromLane="0" toLane="0"/>
    <connection from="-1002651741#6" to="-691962963#0" fromLane="0" toLane="0"/>
    <connection from="-1002651741#6" to="1002651741#6" fromLane="0" toLane="0"/>

    <connection from="-1005593304#0" to="1005593306#1" fromLane="0" toLane="0"/>
    <connection from="-1005593304#0" to="-1005593306#0" fromLane="0" toLane="0"/>
    <connection from="-1005593304#0" to="1005593304#0" fromLane="0" toLane="0"/>

    <connection from="-1005593304#1" to="-1005593304#3" fromLane="0" toLane="0"/>
    <connection from="-1005593304#1" to="-1005593304#0" fromLane="0" toLane="0"/>
    <connection from="-1005593304#1" to="1005593304#1" fromLane="0" toLane="0"/>

    <connection from="-1005593304#2" to="-1005593304#1" fromLane="0" toLane="0"/>
    <connection from="-1005593304#2" to="1005593304#2" fromLane="0" toLane="0"/>

    <connection from="-1005593304#3" to="-1005593304#2" fromLane="0" toLane="0"/>
    <connection from="-1005593304#3" to="1005593304#3" fromLane="0" toLane="0"/>

    <connection from="-1005593305" to="1005593305" fromLane="0" toLane="0"/>

    <connection from="-1005593306#0" to="170216232#3" fromLane="0" toLane="0"/>
    <connection from="-1005593306#0" to="-170216232#2" fromLane="0" toLane="0"/>
    <connection from="-1005593306#0" to="1005593306#0" fromLane="0" toLane="0"/>

    <connection from="-1005593306#1" to="-1005593306#0" fromLane="0" toLane="0"/>
    <connection from="-1005593306#1" to="1005593304#0" fromLane="0" toLane="0"/>
    <connection from="-1005593306#1" to="1005593306#1" fromLane="0" toLane="0"/>

    <connection from="-1005593307#0" to="1005593307#0" fromLane="0" toLane="0"/>

    <connection from="-1005593308" to="1005593307#1" fromLane="0" toLane="0"/>
    <connection from="-1005593308" to="-1005593307#0" fromLane="0" toLane="0"/>
    <connection from="-1005593308" to="1005593308" fromLane="0" toLane="0"/>

    <connection from="-1014451012#0" to="38910387#1" fromLane="0" toLane="0"/>
    <connection from="-1014451012#0" to="-38910387#0" fromLane="0" toLane="0"/>
    <connection from="-1014451012#0" to="1014451012#0" fromLane="0" toLane="0"/>

    <connection from="-1014451012#1" to="-1014451012#0" fromLane="0" toLane="0"/>

    <connection from="-1018473416#0" to="-1018473417" fromLane="0" toLane="0"/>
    <connection from="-1018473416#0" to="-1343441825" fromLane="0" toLane="0"/>
    <connection from="-1018473416#0" to="1018473416#0" fromLane="0" toLane="0"/>

    <connection from="-1018473416#1" to="26589118#3" fromLane="0" toLane="0"/>
    <connection from="-1018473416#1" to="-1018473416#0" fromLane="0" toLane="0"/>
    <connection from="-1018473416#1" to="1018473416#1" fromLane="0" toLane="0"/>

    <connection from="-1018473417" to="-1018473418#2" fromLane="0" toLane="0"/>
    <connection from="-1018473417" to="-1343441817" fromLane="0" toLane="0"/>
    <connection from="-1018473417" to="1018473417" fromLane="0" toLane="0"/>

    <connection from="-1018473418#0" to="-1018473425#1" fromLane="0" toLane="0"/>
    <connection from="-1018473418#0" to="1018473425#2" fromLane="0" toLane="0"/>
    <connection from="-1018473418#0" to="1018473418#0" fromLane="0" toLane="0"/>

    <connection from="-1018473418#1" to="-1018473418#0" fromLane="0" toLane="0"/>
    <connection from="-1018473418#1" to="1018473418#1" fromLane="0" toLane="0"/>

    <connection from="-1018473418#2" to="-1018473418#1" fromLane="0" toLane="0"/>
    <connection from="-1018473418#2" to="1333733086#1" fromLane="0" toLane="0"/>
    <connection from="-1018473418#2" to="1018473418#2" fromLane="0" toLane="0"/>

    <connection from="-1018473422#0" to="1343455057#1" fromLane="0" toLane="0"/>
    <connection from="-1018473422#0" to="1333733082#2" fromLane="0" toLane="1"/>
    <connection from="-1018473422#0" to="-1343455057#0" fromLane="0" toLane="0"/>

    <connection from="-1018473425#0" to="-1246914376#1" fromLane="0" toLane="0"/>
    <connection from="-1018473425#0" to="1018473425#0" fromLane="0" toLane="0"/>

    <connection from="-1018473425#1" to="-1329351754#1" fromLane="0" toLane="0"/>
    <connection from="-1018473425#1" to="-1018473425#0" fromLane="0" toLane="0"/>
    <connection from="-1018473425#1" to="1018473425#1" fromLane="0" toLane="0"/>

    <connection from="-1018473425#2" to="1018473418#0" fromLane="0" toLane="0"/>
    <connection from="-1018473425#2" to="-1018473425#1" fromLane="0" toLane="0"/>
    <connection from="-1018473425#2" to="1018473425#2" fromLane="0" toLane="0"/>

    <connection from="-1018473426#0" to="-1329659730#1" fromLane="0" toLane="0"/>
    <connection from="-1018473426#0" to="1018473426#0" fromLane="0" toLane="0"/>

    <connection from="-1018473426#1" to="-1018473426#0" fromLane="0" toLane="0"/>
    <connection from="-1018473426#1" to="1018473426#1" fromLane="0" toLane="0"/>

    <connection from="-1018473429#0" to="1343490332#1" fromLane="0" toLane="0"/>
    <connection from="-1018473429#0" to="1018473429#0" fromLane="0" toLane="0"/>

    <connection from="-1018473429#1" to="1329659720#1" fromLane="0" toLane="0"/>
    <connection from="-1018473429#1" to="-1018473429#0" fromLane="0" toLane="0"/>
    <connection from="-1018473429#1" to="-1329659720#0" fromLane="0" toLane="0"/>

    <connection from="-1018473429#2" to="-1018473429#1" fromLane="0" toLane="0"/>

    <connection from="-1018473429#3" to="-1018473429#2" fromLane="0" toLane="0"/>

    <connection from="-1018727350#0" to="1333683076#3" fromLane="0" toLane="0"/>
    <connection from="-1018727350#0" to="-1333683076#2" fromLane="0" toLane="0"/>
    <connection from="-1018727350#0" to="1018727350#0" fromLane="0" toLane="0"/>

    <connection from="-1019077086" to="-379714759#0" fromLane="0" toLane="0"/>
    <connection from="-1019077086" to="379714759#1" fromLane="0" toLane="0"/>
    <connection from="-1019077086" to="1019077086" fromLane="0" toLane="0"/>

    <connection from="-1019077087" to="219418430#1" fromLane="0" toLane="0"/>
    <connection from="-1019077087" to="379714755#0" fromLane="0" toLane="0"/>
    <connection from="-1019077087" to="-219418430#0" fromLane="0" toLane="0"/>
    <connection from="-1019077087" to="980114918" fromLane="0" toLane="0"/>

    <connection from="-1019098898#0" to="-1341228522#0" fromLane="0" toLane="0"/>
    <connection from="-1019098898#0" to="1341228522#1" fromLane="0" toLane="0"/>

    <connection from="-1019098898#1" to="-1341807153#0" fromLane="0" toLane="0"/>
    <connection from="-1019098898#1" to="-1019098898#0" fromLane="0" toLane="0"/>
    <connection from="-1019098898#1" to="1341807153#1" fromLane="0" toLane="0"/>
    <connection from="-1019098898#1" to="1019098898#1" fromLane="0" toLane="0"/>

    <connection from="-1019103053#0" to="1341771116#2" fromLane="0" toLane="0"/>
    <connection from="-1019103053#0" to="-1341771125#0" fromLane="0" toLane="0"/>
    <connection from="-1019103053#0" to="-1341771116#1" fromLane="0" toLane="0"/>
    <connection from="-1019103053#0" to="1341771125#1" fromLane="0" toLane="0"/>

    <connection from="-1019103053#1" to="-1019103053#0" fromLane="0" toLane="0"/>
    <connection from="-1019103053#1" to="1019103053#1" fromLane="0" toLane="0"/>

    <connection from="-1019103053#2" to="-1019103053#1" fromLane="0" toLane="0"/>
    <connection from="-1019103053#2" to="1019103053#2" fromLane="0" toLane="0"/>

    <connection from="-1019103053#3" to="-1019103053#2" fromLane="0" toLane="0"/>
    <connection from="-1019103053#3" to="1019103053#3" fromLane="0" toLane="0"/>

    <connection from="-1019103053#4" to="-1019103053#3" fromLane="0" toLane="0"/>
    <connection from="-1019103053#4" to="1019103053#4" fromLane="0" toLane="0"/>

    <connection from="-1019103053#5" to="-1019103053#4" fromLane="0" toLane="0"/>
    <connection from="-1019103053#5" to="1019103053#5" fromLane="0" toLane="0"/>

    <connection from="-1019103053#6" to="-1105479887#1" fromLane="0" toLane="0"/>
    <connection from="-1019103053#6" to="-1019103053#5" fromLane="0" toLane="0"/>
    <connection from="-1019103053#6" to="1019103053#6" fromLane="0" toLane="0"/>

    <connection from="-1019187556" to="1019187556" fromLane="0" toLane="0"/>

    <connection from="-1019187561#0" to="1019187561#0" fromLane="0" toLane="0"/>

    <connection from="-1019187561#1" to="-1019187561#0" fromLane="0" toLane="0"/>
    <connection from="-1019187561#1" to="1019187561#1" fromLane="0" toLane="0"/>

    <connection from="-1019187563" to="-1059488487#0" fromLane="0" toLane="0"/>
    <connection from="-1019187563" to="-1342070689#0" fromLane="0" toLane="0"/>
    <connection from="-1019187563" to="1059488487#1" fromLane="0" toLane="0"/>
    <connection from="-1019187563" to="1342070689#1" fromLane="0" toLane="0"/>

    <connection from="-1019187568" to="1019187569#0" fromLane="0" toLane="0"/>
    <connection from="-1019187568" to="1019187568" fromLane="0" toLane="0"/>

    <connection from="-1019187569#0" to="1019187568" fromLane="0" toLane="0"/>
    <connection from="-1019187569#0" to="1019187569#0" fromLane="0" toLane="0"/>

    <connection from="-1019237461#0" to="-34729217#0" fromLane="0" toLane="0"/>
    <connection from="-1019237461#0" to="34729217#1" fromLane="0" toLane="0"/>
    <connection from="-1019237461#0" to="1019237461#0" fromLane="0" toLane="0"/>

    <connection from="-1019237461#1" to="1104719873" fromLane="0" toLane="0"/>
    <connection from="-1019237461#1" to="-1019237461#0" fromLane="0" toLane="0"/>

    <connection from="-1019237461#2" to="-1019237461#1" fromLane="0" toLane="0"/>

    <connection from="-1019237461#3" to="-1019237461#2" fromLane="0" toLane="0"/>
    <connection from="-1019237461#3" to="-1019237462" fromLane="0" toLane="0"/>
    <connection from="-1019237461#3" to="1019237461#3" fromLane="0" toLane="0"/>

    <connection from="-1019237462" to="-38252432" fromLane="0" toLane="0"/>
    <connection from="-1019237462" to="1019237462" fromLane="0" toLane="0"/>

    <connection from="-1019237468" to="-38231565" fromLane="0" toLane="0" keepClear="0"/>

    <connection from="-1019237469" to="-34932005#1" fromLane="0" toLane="0"/>
    <connection from="-1019237469" to="1019237469" fromLane="0" toLane="0"/>

    <connection from="-1019237470" to="-38241529#3" fromLane="0" toLane="0"/>
    <connection from="-1019237470" to="38241529#4" fromLane="0" toLane="0"/>
    <connection from="-1019237470" to="1019237470" fromLane="0" toLane="0"/>

    <connection from="-1019237471#0" to="401626123#1" fromLane="0" toLane="0"/>
    <connection from="-1019237471#0" to="-401626123#0" fromLane="0" toLane="0"/>
    <connection from="-1019237471#0" to="1019237471#0" fromLane="0" toLane="0"/>

    <connection from="-1019237471#1" to="350803437" fromLane="0" toLane="0"/>
    <connection from="-1019237471#1" to="-1019237471#0" fromLane="0" toLane="0"/>
    <connection from="-1019237471#1" to="1019237471#1" fromLane="0" toLane="0"/>

    <connection from="-1019237472" to="38241527#1" fromLane="0" toLane="0"/>
    <connection from="-1019237472" to="1019237472" fromLane="0" toLane="0"/>

    <connection from="-1019237476" to="-640319715" fromLane="0" toLane="0"/>
    <connection from="-1019237476" to="-715529780#1" fromLane="0" toLane="0"/>
    <connection from="-1019237476" to="1019237476" fromLane="0" toLane="0"/>

    <connection from="-1019237480" to="185646627#5" fromLane="0" toLane="0"/>
    <connection from="-1019237480" to="-185646627#4" fromLane="0" toLane="0"/>
    <connection from="-1019237480" to="1019237480" fromLane="0" toLane="0"/>

    <connection from="-1019237481" to="590969419#1" fromLane="0" toLane="0"/>
    <connection from="-1019237481" to="-590969419#0" fromLane="0" toLane="0"/>
    <connection from="-1019237481" to="1019237481" fromLane="0" toLane="0"/>

    <connection from="-1019237482#0" to="1183044137#2" fromLane="0" toLane="0"/>
    <connection from="-1019237482#0" to="-1183044137#1" fromLane="0" toLane="0"/>
    <connection from="-1019237482#0" to="1019237482#0" fromLane="0" toLane="0"/>

    <connection from="-1019237482#1" to="-1019237482#0" fromLane="0" toLane="0"/>
    <connection from="-1019237482#1" to="-185646641#0" fromLane="0" toLane="0"/>
    <connection from="-1019237482#1" to="185646641#1" fromLane="0" toLane="0"/>
    <connection from="-1019237482#1" to="1019237482#1" fromLane="0" toLane="0"/>

    <connection from="-1019237483" to="-1019237484" fromLane="0" toLane="0" keepClear="0"/>

    <connection from="-1019237484" to="185646621#2" fromLane="0" toLane="0"/>
    <connection from="-1019237484" to="-185646621#1" fromLane="0" toLane="0"/>
    <connection from="-1019237484" to="1019237484" fromLane="0" toLane="0"/>

    <connection from="-1019443745" to="28915106#1" fromLane="0" toLane="0"/>
    <connection from="-1019443745" to="-28915106#0" fromLane="0" toLane="0"/>
    <connection from="-1019443745" to="1019443745" fromLane="0" toLane="0"/>

    <connection from="-1019443746" to="-173133447#0" fromLane="0" toLane="0"/>
    <connection from="-1019443746" to="173133447#1" fromLane="0" toLane="0"/>
    <connection from="-1019443746" to="41495110#0" fromLane="0" toLane="0"/>
    <connection from="-1019443746" to="1019443746" fromLane="0" toLane="0"/>

    <connection from="-1019443758" to="162905933#4" fromLane="0" toLane="0"/>
    <connection from="-1019443758" to="-162905933#3" fromLane="0" toLane="0"/>
    <connection from="-1019443758" to="1019443758" fromLane="0" toLane="0"/>

    <connection from="-1019443766" to="-350783197#5" fromLane="0" toLane="0"/>
    <connection from="-1019443766" to="350783197#6" fromLane="0" toLane="0"/>
    <connection from="-1019443766" to="1019443766" fromLane="0" toLane="0"/>

    <connection from="-1019443767" to="-42782042#0" fromLane="0" toLane="0"/>
    <connection from="-1019443767" to="42782042#1" fromLane="0" toLane="0"/>
    <connection from="-1019443767" to="1019443767" fromLane="0" toLane="0"/>

    <connection from="-1019443772" to="1019443772" fromLane="0" toLane="0"/>

    <connection from="-1019443773" to="1019443773" fromLane="0" toLane="0"/>

    <connection from="-1019443775#0" to="699176988#9" fromLane="0" toLane="0"/>
    <connection from="-1019443775#0" to="-699176988#8" fromLane="0" toLane="0"/>
    <connection from="-1019443775#0" to="1019443775#0" fromLane="0" toLane="0"/>

    <connection from="-1019443775#1" to="-1019443772" fromLane="0" toLane="0"/>
    <connection from="-1019443775#1" to="-1019443775#0" fromLane="0" toLane="0"/>
    <connection from="-1019443775#1" to="1019443774" fromLane="0" toLane="0"/>
    <connection from="-1019443775#1" to="1019443775#1" fromLane="0" toLane="0"/>

    <connection from="-1019443779" to="-1064455937" fromLane="0" toLane="0"/>
    <connection from="-1019443779" to="-1064455938" fromLane="0" toLane="0"/>

    <connection from="-1019461395" to="1019461397#4" fromLane="0" toLane="0"/>
    <connection from="-1019461395" to="-1019461397#3" fromLane="0" toLane="0"/>
    <connection from="-1019461395" to="1019461395" fromLane="0" toLane="0"/>

    <connection from="-1019461396" to="1019461397#3" fromLane="0" toLane="0"/>
    <connection from="-1019461396" to="-1019461397#2" fromLane="0" toLane="0"/>
    <connection from="-1019461396" to="1019461396" fromLane="0" toLane="0"/>

    <connection from="-1019461397#0" to="1019461397#2" fromLane="0" toLane="0"/>
    <connection from="-1019461397#0" to="-1019461397#1" fromLane="0" toLane="0"/>
    <connection from="-1019461397#0" to="1019461397#0" fromLane="0" toLane="0"/>

    <connection from="-1019461397#1" to="-1019461397#0" fromLane="0" toLane="0"/>

    <connection from="-1019461397#2" to="-1019461397#1" fromLane="0" toLane="0"/>
    <connection from="-1019461397#2" to="1019461397#0" fromLane="0" toLane="0"/>
    <connection from="-1019461397#2" to="1019461397#2" fromLane="0" toLane="0"/>

    <connection from="-1019461397#3" to="-1019461397#2" fromLane="0" toLane="0"/>
    <connection from="-1019461397#3" to="1019461396" fromLane="0" toLane="0"/>
    <connection from="-1019461397#3" to="1019461397#3" fromLane="0" toLane="0"/>

    <connection from="-1019461397#4" to="-1019461397#3" fromLane="0" toLane="0"/>
    <connection from="-1019461397#4" to="1019461395" fromLane="0" toLane="0"/>
    <connection from="-1019461397#4" to="1019461397#4" fromLane="0" toLane="0"/>

    <connection from="-1019461398" to="41485308#6" fromLane="0" toLane="0"/>
    <connection from="-1019461398" to="-41485308#5" fromLane="0" toLane="0"/>
    <connection from="-1019461398" to="1019461398" fromLane="0" toLane="0"/>

    <connection from="-1019461399" to="1019461400#1" fromLane="0" toLane="0"/>
    <connection from="-1019461399" to="-1019461400#0" fromLane="0" toLane="0"/>
    <connection from="-1019461399" to="1019461399" fromLane="0" toLane="0"/>

    <connection from="-1019461400#0" to="41485308#2" fromLane="0" toLane="0"/>
    <connection from="-1019461400#0" to="-41485308#1" fromLane="0" toLane="0"/>
    <connection from="-1019461400#0" to="1019461400#0" fromLane="0" toLane="0"/>

    <connection from="-1019461400#1" to="-1019461400#0" fromLane="0" toLane="0"/>
    <connection from="-1019461400#1" to="1019461399" fromLane="0" toLane="0"/>
    <connection from="-1019461400#1" to="1019461400#1" fromLane="0" toLane="0"/>

    <connection from="-1019461402" to="-1019461403#1" fromLane="0" toLane="0"/>
    <connection from="-1019461402" to="1019461403#2" fromLane="0" toLane="0"/>
    <connection from="-1019461402" to="1019461402" fromLane="0" toLane="0"/>

    <connection from="-1019461403#0" to="-614006524#1" fromLane="0" toLane="0"/>
    <connection from="-1019461403#0" to="614006524#2" fromLane="0" toLane="0"/>
    <connection from="-1019461403#0" to="1019461403#0" fromLane="0" toLane="0"/>

    <connection from="-1019461403#1" to="-1019461403#0" fromLane="0" toLane="0"/>
    <connection from="-1019461403#1" to="1019461403#1" fromLane="0" toLane="0"/>

    <connection from="-1019461403#2" to="1019461402" fromLane="0" toLane="0"/>
    <connection from="-1019461403#2" to="-1019461403#1" fromLane="0" toLane="0"/>
    <connection from="-1019461403#2" to="1019461403#2" fromLane="0" toLane="0"/>

    <connection from="-1019461405" to="-1019461408#3" fromLane="0" toLane="0"/>
    <connection from="-1019461405" to="1019461408#4" fromLane="0" toLane="0"/>
    <connection from="-1019461405" to="1019461405" fromLane="0" toLane="0"/>

    <connection from="-1019461406" to="-1019461408#2" fromLane="0" toLane="0"/>
    <connection from="-1019461406" to="1019461408#3" fromLane="0" toLane="0"/>
    <connection from="-1019461406" to="1019461406" fromLane="0" toLane="0"/>

    <connection from="-1019461407" to="-1019461408#4" fromLane="0" toLane="0"/>
    <connection from="-1019461407" to="1019461408#5" fromLane="0" toLane="0"/>
    <connection from="-1019461407" to="1019461407" fromLane="0" toLane="0"/>

    <connection from="-1019461408#0" to="41485311#3" fromLane="0" toLane="0"/>
    <connection from="-1019461408#0" to="-41485311#2" fromLane="0" toLane="0"/>
    <connection from="-1019461408#0" to="1019461408#0" fromLane="0" toLane="0"/>

    <connection from="-1019461408#1" to="-1019461408#0" fromLane="0" toLane="0"/>
    <connection from="-1019461408#1" to="1019461408#1" fromLane="0" toLane="0"/>

    <connection from="-1019461408#2" to="-1019461407" fromLane="0" toLane="0"/>
    <connection from="-1019461408#2" to="-1019461408#1" fromLane="0" toLane="0"/>
    <connection from="-1019461408#2" to="1019461408#2" fromLane="0" toLane="0"/>

    <connection from="-1019461408#3" to="1019461406" fromLane="0" toLane="0"/>
    <connection from="-1019461408#3" to="-1019461408#2" fromLane="0" toLane="0"/>
    <connection from="-1019461408#3" to="1019461408#3" fromLane="0" toLane="0"/>

    <connection from="-1019461408#4" to="1019461405" fromLane="0" toLane="0"/>
    <connection from="-1019461408#4" to="-1019461408#3" fromLane="0" toLane="0"/>
    <connection from="-1019461408#4" to="1019461408#4" fromLane="0" toLane="0"/>

    <connection from="-1019461408#5" to="1019461407" fromLane="0" toLane="0"/>
    <connection from="-1019461408#5" to="-1019461408#4" fromLane="0" toLane="0"/>
    <connection from="-1019461408#5" to="1019461408#5" fromLane="0" toLane="0"/>

    <connection from="-1019461408#6" to="-1019461408#5" fromLane="0" toLane="0"/>
    <connection from="-1019461408#6" to="1019461408#6" fromLane="0" toLane="0"/>

    <connection from="-1019461413#0" to="-1117318090#2" fromLane="0" toLane="0"/>
    <connection from="-1019461413#0" to="1019461413#0" fromLane="0" toLane="0"/>

    <connection from="-1019461413#1" to="-1019461413#0" fromLane="0" toLane="0"/>
    <connection from="-1019461413#1" to="1019461413#1" fromLane="0" toLane="0"/>

    <connection from="-1019461415" to="1019461416#1" fromLane="0" toLane="0"/>
    <connection from="-1019461415" to="-1019461416#0" fromLane="0" toLane="0"/>
    <connection from="-1019461415" to="1019461415" fromLane="0" toLane="0"/>

    <connection from="-1019461416#0" to="29185071#2" fromLane="0" toLane="0"/>
    <connection from="-1019461416#0" to="-29185071#1" fromLane="0" toLane="0"/>
    <connection from="-1019461416#0" to="1019461416#0" fromLane="0" toLane="0"/>

    <connection from="-1019461416#1" to="-1019461416#0" fromLane="0" toLane="0"/>
    <connection from="-1019461416#1" to="1019461415" fromLane="0" toLane="0"/>
    <connection from="-1019461416#1" to="1019461416#1" fromLane="0" toLane="0"/>

    <connection from="-1019461418" to="29185073#2" fromLane="0" toLane="0"/>
    <connection from="-1019461418" to="-29185073#1" fromLane="0" toLane="0"/>
    <connection from="-1019461418" to="1019461418" fromLane="0" toLane="0"/>

    <connection from="-1019461421" to="-1019461422#2" fromLane="0" toLane="0"/>
    <connection from="-1019461421" to="1019461422#3" fromLane="0" toLane="0"/>
    <connection from="-1019461421" to="1019461421" fromLane="0" toLane="0"/>

    <connection from="-1019461422#0" to="402873497#3" fromLane="0" toLane="0"/>
    <connection from="-1019461422#0" to="-402873497#2" fromLane="0" toLane="0"/>
    <connection from="-1019461422#0" to="1019461422#0" fromLane="0" toLane="0"/>

    <connection from="-1019461422#1" to="1019461420#0" fromLane="0" toLane="0"/>
    <connection from="-1019461422#1" to="-1019461422#0" fromLane="0" toLane="0"/>
    <connection from="-1019461422#1" to="1019461422#1" fromLane="0" toLane="0"/>

    <connection from="-1019461422#2" to="-1019461421" fromLane="0" toLane="0"/>
    <connection from="-1019461422#2" to="-1019461422#1" fromLane="0" toLane="0"/>
    <connection from="-1019461422#2" to="1019461422#2" fromLane="0" toLane="0"/>

    <connection from="-1019461422#3" to="1019461421" fromLane="0" toLane="0"/>
    <connection from="-1019461422#3" to="-1019461422#2" fromLane="0" toLane="0"/>
    <connection from="-1019461422#3" to="1019461422#3" fromLane="0" toLane="0"/>

    <connection from="-1019461424" to="1019461426#2" fromLane="0" toLane="0"/>
    <connection from="-1019461424" to="-1019461426#1" fromLane="0" toLane="0"/>
    <connection from="-1019461424" to="1019461424" fromLane="0" toLane="0"/>

    <connection from="-1019461425#0" to="1019461426#3" fromLane="0" toLane="0"/>
    <connection from="-1019461425#0" to="-1019461426#2" fromLane="0" toLane="0"/>
    <connection from="-1019461425#0" to="1019461425#0" fromLane="0" toLane="0"/>

    <connection from="-1019461425#1" to="-1019461425#0" fromLane="0" toLane="0"/>
    <connection from="-1019461425#1" to="-1019461424" fromLane="0" toLane="0"/>
    <connection from="-1019461425#1" to="1019461425#1" fromLane="0" toLane="0"/>

    <connection from="-1019461426#0" to="-1019461430#0" fromLane="0" toLane="0"/>
    <connection from="-1019461426#0" to="1019461430#1" fromLane="0" toLane="0"/>
    <connection from="-1019461426#0" to="1019461426#0" fromLane="0" toLane="0"/>

    <connection from="-1019461426#1" to="-1019461426#0" fromLane="0" toLane="0"/>
    <connection from="-1019461426#1" to="-1019461425#1" fromLane="0" toLane="0"/>
    <connection from="-1019461426#1" to="1019461426#1" fromLane="0" toLane="0"/>

    <connection from="-1019461426#2" to="-1019461426#1" fromLane="0" toLane="0"/>
    <connection from="-1019461426#2" to="1019461424" fromLane="0" toLane="0"/>
    <connection from="-1019461426#2" to="1019461426#2" fromLane="0" toLane="0"/>

    <connection from="-1019461426#3" to="-1019461426#2" fromLane="0" toLane="0"/>
    <connection from="-1019461426#3" to="1019461425#0" fromLane="0" toLane="0"/>
    <connection from="-1019461426#3" to="1019461426#3" fromLane="0" toLane="0"/>

    <connection from="-1019461426#4" to="-1019461426#3" fromLane="0" toLane="0"/>
    <connection from="-1019461426#4" to="1019461426#4" fromLane="0" toLane="0"/>

    <connection from="-1019461430#0" to="691972764#3" fromLane="0" toLane="0"/>
    <connection from="-1019461430#0" to="-691972764#2" fromLane="0" toLane="0"/>
    <connection from="-1019461430#0" to="1019461430#0" fromLane="0" toLane="0"/>

    <connection from="-1019461430#1" to="1019461426#0" fromLane="0" toLane="0"/>
    <connection from="-1019461430#1" to="-1019461430#0" fromLane="0" toLane="0"/>
    <connection from="-1019461430#1" to="1019461430#1" fromLane="0" toLane="0"/>

    <connection from="-1019513668#0" to="38296971#4" fromLane="0" toLane="0"/>
    <connection from="-1019513668#0" to="-38296971#3" fromLane="0" toLane="0"/>
    <connection from="-1019513668#0" to="1019513668#0" fromLane="0" toLane="0"/>

    <connection from="-1019513668#1" to="1098927818#4" fromLane="0" toLane="0"/>
    <connection from="-1019513668#1" to="-1019513668#0" fromLane="0" toLane="0"/>
    <connection from="-1019513668#1" to="-1098927818#3" fromLane="0" toLane="0"/>

    <connection from="-1019513669#0" to="38296971#2" fromLane="0" toLane="0"/>