<?xml version="1.0" encoding="UTF-8"?>

<!-- generated on 2025-04-04 16:23:52 by Eclipse SUMO netconvert Version 1.19.0
<configuration xmlns:xsi="http://www.w3.org/2001/XMLSchema-instance" xsi:noNamespaceSchemaLocation="http://sumo.dlr.de/xsd/netconvertConfiguration.xsd">

    <input>
        <sumo-net-file value="meaux/meaux.net.xml"/>
    </input>

    <output>
        <plain-output-prefix value="meaux/meaux"/>
    </output>

    <processing>
        <geometry.min-radius.fix.railways value="false"/>
        <geometry.max-grade.fix value="false"/>
        <offset.disable-normalization value="true"/>
        <lefthand value="0"/>
    </processing>

    <tls_building>
        <tls.ignore-internal-junction-jam value="1"/>
    </tls_building>

    <junctions>
        <no-turnarounds value="true"/>
        <junctions.corner-detail value="5"/>
        <junctions.limit-turn-speed value="5.50"/>
        <rectangular-lane-cut value="0"/>
    </junctions>

    <pedestrian>
        <walkingareas value="0"/>
    </pedestrian>

</configuration>
-->

<edges version="1.16" xmlns:xsi="http://www.w3.org/2001/XMLSchema-instance" xsi:noNamespaceSchemaLocation="http://sumo.dlr.de/xsd/edges_file.xsd">
    <location netOffset="-486589.00,-5417504.42" convBoundary="0.00,0.00,10286.28,10466.02" origBoundary="2.796723,48.891655,3.062785,49.004682" projParameter="+proj=utm +zone=31 +ellps=WGS84 +datum=WGS84 +units=m +no_defs"/>

    <edge id="-1002140132" from="8685252862" to="8685252861" priority="1" type="highway.service" numLanes="1" speed="5.56" allow="pedestrian delivery bicycle"/>
    <edge id="-1002414128" from="1277280880" to="1277280708" priority="4" type="highway.unclassified" numLanes="1" speed="13.89" shape="7218.20,5766.87 7210.65,5778.03 7208.66,5855.82" disallow="tram rail_urban rail rail_electric rail_fast ship"/>
    <edge id="-1002651740#0" from="9440326896" to="6495121218" priority="1" type="highway.service" numLanes="1" speed="5.56" allow="pedestrian delivery bicycle"/>
    <edge id="-1002651740#1" from="6495121187" to="9440326896" priority="1" type="highway.service" numLanes="1" speed="5.56" shape="4405.89,2977.82 4408.89,2978.04 4411.31,2978.22" allow="pedestrian delivery bicycle"/>
    <edge id="-1002651741#0" from="6495121253" to="6495121222" priority="1" type="highway.service" numLanes="1" speed="5.56" allow="pedestrian delivery bicycle"/>
    <edge id="-1002651741#1" from="6495121244" to="6495121253" priority="1" type="highway.service" numLanes="1" speed="5.56" allow="pedestrian delivery bicycle"/>
    <edge id="-1002651741#2" from="6495121242" to="6495121244" priority="1" type="highway.service" numLanes="1" speed="5.56" allow="pedestrian delivery bicycle"/>
    <edge id="-1002651741#3" from="6495121239" to="6495121242" priority="1" type="highway.service" numLanes="1" speed="5.56" allow="pedestrian delivery bicycle"/>
    <edge id="-1002651741#4" from="6495121236" to="6495121239" priority="1" type="highway.service" numLanes="1" speed="5.56" allow="pedestrian delivery bicycle"/>
    <edge id="-1002651741#5" from="6495121233" to="6495121236" priority="1" type="highway.service" numLanes="1" speed="5.56" allow="pedestrian delivery bicycle"/>
    <edge id="-1002651741#6" from="6495121218" to="6495121233" priority="1" type="highway.service" numLanes="1" speed="5.56" allow="pedestrian delivery bicycle"/>
    <edge id="-1005593304#0" from="9277937126" to="cluster_12015100112_9277937136" priority="1" type="highway.path" numLanes="1" speed="5.56" shape="3576.97,3859.25 3566.85,3872.49" width="2.00" allow="pedestrian bicycle"/>
    <edge id="-1005593304#1" from="9277937132" to="9277937126" priority="1" type="highway.path" numLanes="1" speed="5.56" shape="3530.74,3713.69 3529.89,3735.96 3531.14,3765.94 3542.65,3797.82 3557.15,3828.96 3573.70,3845.85 3576.97,3859.25" width="2.00" allow="pedestrian bicycle"/>
    <edge id="-1005593304#2" from="12168173560" to="9277937132" priority="1" type="highway.path" numLanes="1" speed="5.56" shape="3545.23,3690.47 3532.51,3702.41 3530.74,3713.69" width="2.00" allow="pedestrian bicycle"/>
    <edge id="-1005593304#3" from="9277937126" to="12168173560" priority="1" type="highway.path" numLanes="1" speed="5.56" shape="3576.97,3859.25 3595.60,3839.15 3620.41,3794.28 3625.95,3760.89 3625.40,3739.58 3618.18,3714.26 3594.31,3694.16 3559.83,3691.88 3545.23,3690.47" width="2.00" allow="pedestrian bicycle"/>
    <edge id="-1005593305" from="9277937135" to="9277937134" priority="1" type="highway.service" numLanes="1" speed="5.56" allow="pedestrian delivery bicycle"/>
    <edge id="-1005593306#1" from="9277937142" to="cluster_12015100112_9277937136" priority="1" type="highway.service" numLanes="1" speed="5.56" shape="3585.74,3870.19 3566.85,3872.49" allow="pedestrian delivery bicycle"/>
    <edge id="-1005593307#0" from="9277937140" to="9277937138" priority="1" type="highway.service" numLanes="1" speed="5.56" allow="pedestrian delivery bicycle"/>
    <edge id="-1005593308" from="9277937142" to="9277937140" priority="1" type="highway.service" numLanes="1" speed="5.56" shape="3585.74,3870.19 3580.63,3892.14 3592.50,3902.23" allow="pedestrian delivery bicycle"/>
    <edge id="-1014451012#1" from="9359279622" to="cluster_9359279619_9724602596" priority="3" type="highway.residential" numLanes="1" speed="2.78" shape="5728.07,4225.20 5749.15,4198.81 5757.45,4198.80 5808.56,4236.48" disallow="tram rail_urban rail rail_electric rail_fast ship"/>
    <edge id="-1018473417" from="cluster_12299253505_12430465904_12430465905_12430465907_#13more" to="9393882239" priority="1" type="highway.path" numLanes="1" speed="5.56" shape="7330.58,5174.21 7370.35,5175.78" width="2.00" allow="pedestrian bicycle"/>
    <edge id="-1018473418#1" from="8259267836" to="cluster_12430435689_9393882241" priority="1" type="highway.cycleway" numLanes="1" speed="5.56" shape="7375.50,5178.27 7380.76,5180.93" width="2.00" allow="bicycle"/>
    <edge id="-1018473418#2" from="9393882239" to="8259267836" priority="1" type="highway.cycleway" numLanes="1" speed="5.56" width="2.00" allow="bicycle"/>
    <edge id="-1018473422#0" from="cluster_12430435700_12430603602_7303889476_8259267847_#1more" to="12430603601" priority="1" type="highway.cycleway" numLanes="1" speed="5.56" shape="7403.75,5170.96 7404.08,5164.51 7398.04,5164.27 7398.24,5159.31" width="2.00" allow="bicycle"/>
    <edge id="-1018473425#0" from="cluster_12430435700_12430603602_7303889476_8259267847_#1more" to="9393882248" priority="1" type="highway.cycleway" numLanes="1" speed="5.56" shape="7403.47,5179.65 7453.12,5181.71 7479.57,5179.21" width="2.00" allow="pedestrian bicycle"/>
    <edge id="-1018473425#1" from="cluster_12430435689_9393882241" to="cluster_12430435700_12430603602_7303889476_8259267847_#1more" priority="1" type="highway.cycleway" numLanes="1" speed="5.56" shape="7383.11,5182.14 7385.09,5178.94 7403.47,5179.65" width="2.00" allow="pedestrian bicycle"/>
    <edge id="-1018473425#2" from="9393882245" to="cluster_12430435689_9393882241" priority="1" type="highway.cycleway" numLanes="1" speed="5.56" shape="7376.78,5190.82 7383.11,5182.14" width="2.00" allow="pedestrian bicycle"/>
    <edge id="-1018473426#0" from="cluster_12301926962_12301926963_12301926964_12301926965_#4more" to="cluster_12301926960_1622876887_5003202276" priority="1" type="highway.path" numLanes="1" speed="5.56" shape="7670.94,5186.85 7688.37,5187.81" width="2.00" allow="pedestrian bicycle"/>
    <edge id="-1018473429#2" from="12430929853" to="cluster_12299215079_12301926938_9393882267" priority="3" type="highway.residential" numLanes="1" speed="13.89" shape="8283.14,5312.95 8282.76,5270.54 8275.24,5224.57 8274.87,5215.98" disallow="tram rail_urban rail rail_electric rail_fast ship"/>
    <edge id="-1018473429#3" from="9393882265" to="12430929853" priority="3" type="highway.residential" numLanes="1" speed="13.89" shape="8279.26,5325.35 8283.18,5317.84 8283.14,5312.95" disallow="tram rail_urban rail rail_electric rail_fast ship"/>
    <edge id="-1018727350#0" from="9396152983" to="9396152980" priority="1" type="highway.cycleway" numLanes="1" speed="5.56" shape="7166.52,5043.92 7165.61,4919.41 7169.50,4912.49" width="2.00" allow="bicycle"/>
    <edge id="-1019077087" from="301582926" to="cluster_2386222482_9066720688" priority="1" type="highway.path" numLanes="1" speed="5.56" shape="8799.84,3451.00 8804.33,3452.02 8803.55,3456.34 8800.65,3477.74 8797.19,3514.07 8796.27,3527.39 8796.01,3538.28 8796.56,3556.29 8797.31,3563.45 8798.94,3576.42 8801.58,3588.68 8803.89,3597.86 8808.20,3612.86 8811.50,3622.48 8816.00,3633.47 8819.91,3642.84 8824.86,3652.24 8839.41,3677.90 8883.91,3752.87 8912.97,3801.61 8922.48,3817.71 8932.98,3836.01 8944.97,3859.45" width="2.00" allow="pedestrian bicycle"/>
    <edge id="-1019098898#0" from="cluster_12412665638_12412665642" to="11579741015" priority="1" type="highway.cycleway" numLanes="1" speed="5.56" shape="5675.21,4893.84 5669.36,4894.97 5665.28,4896.83 5663.18,4898.99" width="2.00" allow="pedestrian bicycle"/>
    <edge id="-1019098898#1" from="10599354830" to="cluster_12412665638_12412665642" priority="1" type="highway.cycleway" numLanes="1" speed="5.56" shape="5706.72,4890.16 5695.85,4889.83 5675.21,4893.84" width="2.00" allow="pedestrian bicycle"/>
    <edge id="-1019103053#0" from="5613904914" to="cluster_12412139734_12412139747_12412139748" priority="1" type="highway.cycleway" numLanes="1" speed="5.56" shape="5610.11,4607.07 5611.93,4599.45 5612.89,4595.43" width="2.00" allow="pedestrian bicycle"/>
    <edge id="-1019103053#1" from="5613904916" to="5613904914" priority="1" type="highway.cycleway" numLanes="1" speed="5.56" width="2.00" allow="pedestrian bicycle"/>
    <edge id="-1019103053#2" from="12412172228" to="5613904916" priority="1" type="highway.cycleway" numLanes="1" speed="5.56" shape="5602.59,4726.67 5600.64,4723.48 5599.43,4684.70 5599.01,4654.39 5599.22,4651.00 5599.84,4646.95 5602.20,4637.62" width="2.00" allow="pedestrian bicycle"/>
    <edge id="-1019103053#3" from="12412172226" to="12412172228" priority="1" type="highway.cycleway" numLanes="1" speed="5.56" shape="5603.24,4748.00 5604.50,4746.82 5603.98,4728.95 5602.59,4726.67" width="2.00" allow="pedestrian bicycle"/>
    <edge id="-1019103053#4" from="cluster_10116210828_12412616155_12412616156_460476765_#3more" to="12412172226" priority="1" type="highway.cycleway" numLanes="1" speed="5.56" shape="5603.38,4779.17 5602.57,4777.32 5601.59,4749.55 5603.24,4748.00" width="2.00" allow="pedestrian bicycle"/>
    <edge id="-1019103053#6" from="10116210825" to="cluster_10116210828_12412616155_12412616156_460476765_#3more" priority="1" type="highway.cycleway" numLanes="1" speed="5.56" shape="5616.28,4787.18 5616.35,4786.64 5616.04,4786.03 5615.20,4785.81 5610.46,4785.72 5608.58,4785.28 5606.94,4784.50 5605.67,4783.41 5604.71,4782.25" width="2.00" allow="pedestrian bicycle"/>
    <edge id="-1019187556" from="2302644302" to="9038368447" priority="1" type="highway.path" numLanes="1" speed="5.56" shape="4926.40,4404.44 4929.79,4405.64 4925.90,4416.74 4922.35,4423.07 4918.68,4427.85 4890.37,4536.87 4881.60,4572.87 4868.53,4627.87" width="2.00" allow="pedestrian bicycle"/>
    <edge id="-1019187561#0" from="12415388693" to="9400417092" priority="1" type="highway.cycleway" numLanes="1" speed="5.56" width="2.00" allow="pedestrian bicycle"/>
    <edge id="-1019187561#1" from="4963306091" to="12415388693" priority="1" type="highway.cycleway" numLanes="1" speed="5.56" width="2.00" allow="pedestrian bicycle"/>
    <edge id="-1019187563" from="12415276328" to="cluster_11955828964_12415388675_12415388676_1277094855_#4more" priority="1" type="highway.cycleway" numLanes="1" speed="8.33" shape="5273.71,4757.16 5222.64,4753.30 5216.29,4752.68" width="2.00" allow="bicycle"/>
    <edge id="-1019187568" from="cluster_11955828955_12412695927_12412695929_12412695943_#5more" to="5613900632" priority="1" type="highway.path" numLanes="1" speed="5.56" shape="5364.42,4759.46 5374.95,4761.02" width="2.00" allow="pedestrian bicycle"/>
    <edge id="-1019187569#0" from="cluster_10116201114_6537061487" to="5613900632" priority="1" type="highway.cycleway" numLanes="1" speed="5.56" shape="5392.06,4767.31 5378.72,4766.28 5376.04,4765.28 5375.50,4764.16 5375.15,4762.15 5374.95,4761.02" width="2.00" allow="bicycle"/>
    <edge id="-1019237461#0" from="10109110005" to="316523248" priority="3" type="highway.residential" numLanes="1" speed="13.89" shape="6192.16,1605.95 6185.52,1624.36 6185.73,1627.74 6185.94,1631.12" disallow="tram rail_urban rail rail_electric rail_fast ship"/>
    <edge id="-1019237461#1" from="450581818" to="10109110005" priority="3" type="highway.residential" numLanes="1" speed="13.89" disallow="tram rail_urban rail rail_electric rail_fast ship"/>
    <edge id="-1019237461#2" from="451000772" to="450581818" priority="3" type="highway.residential" numLanes="1" speed="13.89" disallow="tram rail_urban rail rail_electric rail_fast ship"/>
    <edge id="-1019237461#3" from="409876092" to="451000772" priority="3" type="highway.residential" numLanes="1" speed="13.89" shape="6313.59,1395.38 6226.25,1517.34 6211.58,1543.57 6207.46,1557.60" disallow="tram rail_urban rail rail_electric rail_fast ship"/>
    <edge id="-1019237462" from="451000772" to="451000763" priority="3" type="highway.residential" numLanes="1" speed="13.89" shape="6207.46,1557.60 6194.36,1536.92 6175.28,1501.75 6149.69,1463.88 6132.19,1431.78 6113.11,1397.71 6105.01,1381.35 6100.15,1368.56" disallow="tram rail_urban rail rail_electric rail_fast ship"/>
    <edge id="-1019237468" from="450581856" to="450581852" priority="1" type="highway.track" numLanes="1" speed="5.56" shape="6341.13,393.87 6360.00,518.38 6367.87,599.34 6371.61,683.57 6377.01,719.99" allow="pedestrian motorcycle moped bicycle"/>
    <edge id="-1019237469" from="409876105" to="409876101" priority="3" type="highway.residential" numLanes="1" speed="13.89" shape="6581.59,1090.76 6538.74,1114.81 6504.03,1140.37" disallow="tram rail_urban rail rail_electric rail_fast ship"/>
    <edge id="-1019237470" from="9400856203" to="cluster_9400856204_9748311526" priority="3" type="highway.residential" numLanes="1" speed="13.89" shape="6617.38,1785.28 6616.62,1814.16" disallow="tram rail_urban rail rail_electric rail_fast ship"/>
    <edge id="-1019237471#0" from="9400856218" to="9400856217" priority="1" type="highway.track" numLanes="1" speed="5.56" shape="7149.76,1348.96 7144.20,1269.25 7145.51,1200.67 7141.66,1174.01 7130.71,1132.78 7113.77,1094.94 7104.62,1083.61 7098.12,1080.76" allow="pedestrian motorcycle moped bicycle"/>
    <edge id="-1019237471#1" from="cluster_2971595852_9400856206" to="9400856218" priority="1" type="highway.track" numLanes="1" speed="5.56" shape="7218.16,1547.09 7205.42,1486.18 7202.94,1458.22 7197.95,1435.79 7167.43,1380.78 7149.76,1348.96" allow="pedestrian motorcycle moped bicycle"/>
    <edge id="-1019237472" from="9400856221" to="cluster_1962940810_9400856223" priority="3" type="highway.residential" numLanes="1" speed="13.89" shape="7116.12,1521.49 7118.80,1551.76 7127.78,1588.05" disallow="tram rail_urban rail rail_electric rail_fast ship"/>
    <edge id="-1019237476" from="1962940974" to="1962941127" priority="3" type="highway.residential" numLanes="1" speed="13.89" shape="8250.75,1104.51 8245.46,1116.56 8245.02,1122.33 8242.37,1126.94 8235.59,1129.11" disallow="tram rail_urban rail rail_electric rail_fast ship"/>
    <edge id="-1019237480" from="9400856380" to="1962940744" priority="1" type="highway.track" numLanes="1" speed="5.56" shape="7196.22,676.48 7239.75,681.91 7364.95,698.24 7435.90,709.33 7503.32,720.42 7568.97,737.79 7625.98,756.93 7663.13,769.83 7739.40,796.59 7764.37,811.07 7833.02,875.65 7877.27,912.74 7890.15,926.93 7895.38,941.23 7908.08,1068.67 7912.98,1107.48" allow="pedestrian motorcycle moped bicycle"/>
    <edge id="-1019237482#0" from="9400856390" to="9400856382" priority="1" type="highway.track" numLanes="1" speed="5.56" shape="8632.27,1396.36 8659.71,1338.45 8659.51,1331.10 8656.94,1309.65 8657.23,1301.32 8644.66,1189.66 8646.71,1182.12 8652.89,1176.42 8666.39,1170.61" allow="pedestrian motorcycle moped bicycle"/>
    <edge id="-1019237482#1" from="1962940752" to="9400856390" priority="1" type="highway.track" numLanes="1" speed="5.56" allow="pedestrian motorcycle moped bicycle"/>
    <edge id="-1019237483" from="1962941059" to="9400856392" priority="1" type="highway.track" numLanes="1" speed="5.56" shape="8376.16,1366.44 8387.85,1366.80 8436.18,1360.83" allow="pedestrian motorcycle moped bicycle"/>
    <edge id="-1019237484" from="9400856392" to="9400856393" priority="3" type="highway.residential" numLanes="1" speed="13.89" disallow="tram rail_urban rail rail_electric rail_fast ship"/>
    <edge id="-1019443745" from="9402538708" to="9402538723" priority="1" type="highway.track" numLanes="1" speed="5.56" shape="3191.11,723.73 3226.24,806.74 3243.21,846.88 3262.34,884.46 3281.89,939.49 3287.70,997.07 3291.10,1028.02 3303.72,1057.59 3325.60,1090.47 3332.31,1110.24 3335.70,1136.00 3335.92,1152.56 3339.89,1170.18 3348.86,1186.53 3355.47,1203.17 3359.10,1217.49" allow="pedestrian motorcycle moped bicycle"/>
    <edge id="-1019443746" from="9402538725" to="9402538734" priority="1" type="highway.track" numLanes="1" speed="5.56" shape="3652.27,1448.46 3660.07,1447.32 3675.97,1441.52 3703.45,1423.83 3753.10,1387.90 3783.71,1367.47 3812.35,1336.27 3848.78,1269.79 3896.84,1163.22 3905.97,1141.65" allow="pedestrian motorcycle moped bicycle"/>
    <edge id="-1019443758" from="9402538789" to="1747011494" priority="3" type="highway.residential" numLanes="1" speed="13.89" shape="3877.86,2014.74 3853.75,1986.42 3840.05,1976.08" disallow="tram rail_urban rail rail_electric rail_fast ship"/>
    <edge id="-1019443766" from="9402538834" to="9402538841" priority="3" type="highway.residential" numLanes="1" speed="13.89" shape="3407.51,2335.49 3398.59,2341.13 3394.60,2340.65 3389.09,2332.93 3385.40,2330.79 3379.71,2329.91 3341.41,2341.09 3337.28,2342.58" disallow="tram rail_urban rail rail_electric rail_fast ship"/>
    <edge id="-1019443767" from="9402538842" to="534924626" priority="3" type="highway.residential" numLanes="1" speed="13.89" disallow="tram rail_urban rail rail_electric rail_fast ship"/>
    <edge id="-1019443772" from="9402538866" to="9402538858" priority="3" type="highway.residential" numLanes="1" speed="13.89" disallow="tram rail_urban rail rail_electric rail_fast ship"/>
    <edge id="-1019443773" from="9402538867" to="9402538859" priority="3" type="highway.residential" numLanes="1" speed="13.89" disallow="tram rail_urban rail rail_electric rail_fast ship"/>
    <edge id="-1019443775#0" from="9402538866" to="9402538868" priority="3" type="highway.residential" numLanes="1" speed="13.89" disallow="tram rail_urban rail rail_electric rail_fast ship"/>
    <edge id="-1019443775#1" from="9402538867" to="9402538866" priority="3" type="highway.residential" numLanes="1" speed="13.89" disallow="tram rail_urban rail rail_electric rail_fast ship"/>
    <edge id="-1019443779" from="6585253200" to="6585253201" priority="4" type="highway.unclassified" numLanes="1" speed="13.89" disallow="tram rail_urban rail rail_electric rail_fast ship"/>
    <edge id="-1019461395" from="9402668554" to="9402668564" priority="1" type="highway.service" numLanes="1" speed="5.56" shape="4115.27,3355.12 4134.12,3382.54 4136.93,3386.61 4149.49,3400.04 4153.75,3404.60" allow="pedestrian delivery bicycle"/>
    <edge id="-1019461396" from="9402668556" to="9402668559" priority="1" type="highway.service" numLanes="1" speed="5.56" shape="4124.78,3435.50 4129.01,3441.71 4132.99,3442.48 4158.16,3422.77" allow="pedestrian delivery bicycle"/>
    <edge id="-1019461397#0" from="9402668569" to="9402668566" priority="1" type="highway.service" numLanes="1" speed="5.56" shape="4194.67,3446.34 4186.15,3457.92 4159.60,3437.50 4157.28,3432.11 4160.86,3426.67" allow="pedestrian delivery bicycle"/>
    <edge id="-1019461397#1" from="9402668566" to="9402668569" priority="1" type="highway.service" numLanes="1" speed="5.56" shape="4160.86,3426.67 4168.72,3426.61 4173.73,3427.48 4194.67,3446.34" allow="pedestrian delivery bicycle"/>
    <edge id="-1019461397#2" from="9402668559" to="9402668566" priority="1" type="highway.service" numLanes="1" speed="5.56" allow="pedestrian delivery bicycle"/>
    <edge id="-1019461397#3" from="9402668564" to="9402668559" priority="1" type="highway.service" numLanes="1" speed="5.56" shape="4153.75,3404.60 4154.85,3418.02 4158.16,3422.77" allow="pedestrian delivery bicycle"/>
    <edge id="-1019461397#4" from="251120583" to="9402668564" priority="1" type="highway.service" numLanes="1" speed="5.56" shape="4161.34,3393.21 4156.49,3399.61 4153.75,3404.60" allow="pedestrian delivery bicycle"/>
    <edge id="-1019461398" from="3565298797" to="9402668571" priority="4" type="highway.unclassified" numLanes="1" speed="13.89" shape="4274.09,3270.86 4278.24,3261.62 4312.32,3243.09" disallow="tram rail_urban rail rail_electric rail_fast ship"/>
    <edge id="-1019461399" from="9402668572" to="9402668573" priority="4" type="highway.unclassified" numLanes="1" speed="13.89" disallow="tram rail_urban rail rail_electric rail_fast ship"/>
    <edge id="-1019461400#0" from="9402668573" to="9402668574" priority="4" type="highway.unclassified" numLanes="1" speed="13.89" disallow="tram rail_urban rail rail_electric rail_fast ship"/>
    <edge id="-1019461400#1" from="9402668576" to="9402668573" priority="4" type="highway.unclassified" numLanes="1" speed="13.89" disallow="tram rail_urban rail rail_electric rail_fast ship"/>
    <edge id="-1019461402" from="9402668581" to="9402668583" priority="1" type="highway.service" numLanes="1" speed="5.56" allow="pedestrian delivery bicycle"/>
    <edge id="-1019461403#1" from="9402668583" to="cluster_10219254775_9402668584" priority="1" type="highway.service" numLanes="1" speed="5.56" shape="4044.36,2597.64 4040.68,2585.96" allow="pedestrian delivery bicycle"/>
    <edge id="-1019461403#2" from="9402668582" to="9402668583" priority="1" type="highway.service" numLanes="1" speed="5.56" allow="pedestrian delivery bicycle"/>
    <edge id="-1019461405" from="9402668594" to="9402668595" priority="1" type="highway.service" numLanes="1" speed="5.56" allow="pedestrian delivery bicycle"/>
    <edge id="-1019461406" from="9402668596" to="9402668597" priority="1" type="highway.service" numLanes="1" speed="5.56" allow="pedestrian delivery bicycle"/>
    <edge id="-1019461407" from="9402668598" to="9402668600" priority="1" type="highway.service" numLanes="1" speed="5.56" shape="4425.88,2590.92 4423.39,2654.70 4423.19,2659.65 4423.11,2661.76" allow="pedestrian delivery bicycle"/>
    <edge id="-1019461408#1" from="9402668598" to="cluster_9402668609_9402668639_9440326877_9440326878" priority="1" type="highway.service" numLanes="1" speed="5.56" shape="4425.88,2590.92 4410.46,2591.84" allow="pedestrian delivery bicycle"/>
    <edge id="-1019461408#2" from="9402668597" to="9402668598" priority="1" type="highway.service" numLanes="1" speed="5.56" allow="pedestrian delivery bicycle"/>
    <edge id="-1019461408#3" from="9402668595" to="9402668597" priority="1" type="highway.service" numLanes="1" speed="5.56" allow="pedestrian delivery bicycle"/>
    <edge id="-1019461408#4" from="9402668600" to="9402668595" priority="1" type="highway.service" numLanes="1" speed="5.56" shape="4423.11,2661.76 4431.17,2666.93 4477.94,2671.86 4486.38,2671.35 4491.98,2668.11 4493.93,2600.82 4492.45,2594.65 4488.81,2592.02 4460.51,2591.00" allow="pedestrian delivery bicycle"/>
    <edge id="-1019461408#5" from="cluster_9402668599_9440326881" to="9402668600" priority="1" type="highway.service" numLanes="1" speed="5.56" shape="4409.06,2659.28 4423.11,2661.76" allow="pedestrian delivery bicycle"/>
    <edge id="-1019461413#0" from="cluster_10219254659_9402668635" to="9402668636" priority="1" type="highway.service" numLanes="1" speed="5.56" shape="4440.93,2550.49 4440.08,2583.58" allow="pedestrian delivery bicycle"/>
    <edge id="-1019461415" from="9402668651" to="9402668655" priority="1" type="highway.service" numLanes="1" speed="5.56" shape="4484.84,3489.45 4483.70,3505.12 4479.48,3510.12" allow="pedestrian delivery bicycle"/>
    <edge id="-1019461416#0" from="9402668655" to="9402668656" priority="1" type="highway.service" numLanes="1" speed="5.56" allow="pedestrian delivery bicycle"/>
    <edge id="-1019461416#1" from="9402668653" to="9402668655" priority="1" type="highway.service" numLanes="1" speed="5.56" shape="4532.83,3526.29 4483.32,3516.47 4479.48,3510.12" allow="pedestrian delivery bicycle"/>
    <edge id="-1019461418" from="9402668661" to="9402668664" priority="1" type="highway.service" numLanes="1" speed="5.56" shape="4523.32,3452.03 4521.66,3477.93 4482.56,3474.77 4483.99,3448.22" allow="pedestrian delivery bicycle"/>
    <edge id="-1019461421" from="9402668682" to="9402668686" priority="1" type="highway.service" numLanes="1" speed="5.56" shape="4555.23,3391.91 4498.72,3387.79 4497.67,3403.16 4554.34,3407.58" allow="pedestrian delivery bicycle"/>
    <edge id="-1019461422#0" from="9402668687" to="9402668688" priority="1" type="highway.service" numLanes="1" speed="5.56" shape="4558.07,3341.76 4568.43,3342.09 4573.55,3342.61" allow="pedestrian delivery bicycle"/>
    <edge id="-1019461422#1" from="9402668682" to="9402668687" priority="1" type="highway.service" numLanes="1" speed="5.56" allow="pedestrian delivery bicycle"/>
    <edge id="-1019461422#2" from="9402668686" to="9402668682" priority="1" type="highway.service" numLanes="1" speed="5.56" allow="pedestrian delivery bicycle"/>
    <edge id="-1019461422#3" from="9402668685" to="9402668686" priority="1" type="highway.service" numLanes="1" speed="5.56" shape="4569.94,3408.61 4564.75,3408.29 4554.34,3407.58" allow="pedestrian delivery bicycle"/>
    <edge id="-1019461424" from="9402668693" to="9402668694" priority="1" type="highway.service" numLanes="1" speed="5.56" allow="pedestrian delivery bicycle"/>
    <edge id="-1019461425#0" from="9402668693" to="9402668698" priority="1" type="highway.service" numLanes="1" speed="5.56" shape="4523.05,3112.36 4542.09,3113.13 4539.19,3154.56" allow="pedestrian delivery bicycle"/>
    <edge id="-1019461425#1" from="9402668695" to="9402668693" priority="1" type="highway.service" numLanes="1" speed="5.56" shape="4503.74,3151.68 4507.12,3111.72 4523.05,3112.36" allow="pedestrian delivery bicycle"/>
    <edge id="-1019461426#0" from="9402668695" to="9402668718" priority="1" type="highway.service" numLanes="1" speed="5.56" shape="4503.74,3151.68 4495.40,3151.00 4484.61,3155.82 4477.26,3166.32" allow="pedestrian delivery bicycle"/>
    <edge id="-1019461426#1" from="9402668694" to="9402668695" priority="1" type="highway.service" numLanes="1" speed="5.56" allow="pedestrian delivery bicycle"/>
    <edge id="-1019461426#2" from="9402668698" to="9402668694" priority="1" type="highway.service" numLanes="1" speed="5.56" allow="pedestrian delivery bicycle"/>
    <edge id="-1019461426#3" from="cluster_9402668699_9440330843" to="9402668698" priority="1" type="highway.service" numLanes="1" speed="5.56" shape="4578.41,3157.73 4539.19,3154.56" allow="pedestrian delivery bicycle"/>
    <edge id="-1019461430#0" from="9402668718" to="6495238182" priority="1" type="highway.service" numLanes="1" speed="5.56" shape="4477.26,3166.32 4485.50,3164.64 4494.93,3164.62 4538.10,3167.66" allow="pedestrian delivery bicycle"/>
    <edge id="-1019461430#1" from="507681958" to="9402668718" priority="1" type="highway.service" numLanes="1" speed="5.56" allow="pedestrian delivery bicycle"/>
    <edge id="-1019513668#0" from="cluster_10062374999_9403109946" to="9403109951" priority="3" type="highway.residential" numLanes="1" speed="13.89" shape="5002.83,2552.24 4999.79,2544.22 4992.99,2531.49 4980.49,2517.31 4967.72,2510.18 4940.12,2504.08" disallow="tram rail_urban rail rail_electric rail_fast ship"/>
    <edge id="-1019513669#0" from="cluster_10062375002_9403109952" to="cluster_10739597615_9403109957" priority="3" type="highway.residential" numLanes="1" speed="13.89" shape="5057.97,2536.59 5048.36,2500.76 5043.48,2488.86 5037.05,2477.22 5023.18,2462.94 5003.04,2452.31 4943.68,2440.26" disallow="tram rail_urban rail rail_electric rail_fast ship"/>
    <edge id="-1019513670#0" from="10739616019" to="9403109961" priority="3" type="highway.residential" numLanes="1" speed="13.89" shape="5127.98,2347.92 5120.72,2363.43 5110.09,2386.82 5105.36,2393.50 5101.19,2396.47 5096.45,2398.05 5085.03,2397.97 5041.14,2396.78 5034.10,2393.43 5024.30,2388.75 4997.93,2380.69 4973.22,2373.62 4946.01,2371.54" disallow="tram rail_urban rail rail_electric rail_fast ship"/>
    <edge id="-1019513670#1" from="cluster_10739616026_9750851762" to="10739616019" priority="3" type="highway.residential" numLanes="1" speed="13.89" shape="5140.84,2280.12 5138.34,2292.12 5135.35,2300.33 5124.93,2328.36 5125.80,2331.65 5128.52,2334.63 5132.40,2337.82 5127.98,2347.92" disallow="tram rail_urban rail rail_electric rail_fast ship"/>
    <edge id="-1019513678" from="9403110027" to="9403110028" priority="3" type="highway.residential" numLanes="1" speed="13.89" disallow="tram rail_urban rail rail_electric rail_fast ship"/>
    <edge id="-1019513679" from="9403110029" to="292392359" priority="1" type="highway.service" numLanes="1" speed="5.56" allow="pedestrian delivery bicycle"/>
    <edge id="-1019513681" from="9403110037" to="9403110038" priority="1" type="highway.service" numLanes="1" speed="5.56" allow="pedestrian delivery bicycle"/>
    <edge id="-1019513683" from="9403110046" to="9403110048" priority="1" type="highway.service" numLanes="1" speed="5.56" shape="4720.93,2860.07 4678.99,2858.19 4678.06,2887.06" allow="pedestrian delivery bicycle"/>