<?xml version="1.0" encoding="UTF-8"?>

<!-- generated on 2025-04-09 00:49:26 by Eclipse SUMO netconvert Version 1.19.0
<configuration xmlns:xsi="http://www.w3.org/2001/XMLSchema-instance" xsi:noNamespaceSchemaLocation="http://sumo.dlr.de/xsd/netconvertConfiguration.xsd">

    <input>
        <sumo-net-file value="meaux/meaux.net.xml"/>
    </input>

    <output>
        <plain-output-prefix value="meaux/meaux"/>
    </output>

    <processing>
        <geometry.min-radius.fix.railways value="false"/>
        <geometry.max-grade.fix value="false"/>
        <offset.disable-normalization value="true"/>
        <lefthand value="0"/>
    </processing>

    <tls_building>
        <tls.ignore-internal-junction-jam value="1"/>
    </tls_building>

    <junctions>
        <no-turnarounds value="true"/>
        <junctions.corner-detail value="5"/>
        <junctions.limit-turn-speed value="5.50"/>
        <rectangular-lane-cut value="0"/>
    </junctions>

    <pedestrian>
        <walkingareas value="0"/>
    </pedestrian>

</configuration>
-->

<tlLogics version="1.16" xmlns:xsi="http://www.w3.org/2001/XMLSchema-instance" xsi:noNamespaceSchemaLocation="http://sumo.dlr.de/xsd/tllogic_file.xsd">
    <tlLogic id="10599354818" type="static" programID="0" offset="0">
        <phase duration="82" state="GgGg"/>
        <phase duration="3"  state="yyyy"/>
        <phase duration="5"  state="rrrr"/>
    </tlLogic>
    <tlLogic id="10741053285" type="static" programID="0" offset="0">
        <phase duration="82" state="GgGg"/>
        <phase duration="3"  state="yyyy"/>
        <phase duration="5"  state="rrrr"/>
    </tlLogic>
    <tlLogic id="10741053299" type="static" programID="0" offset="0">
        <phase duration="82" state="GgGg"/>
        <phase duration="3"  state="yyyy"/>
        <phase duration="5"  state="rrrr"/>
    </tlLogic>
    <tlLogic id="11560971079" type="static" programID="0" offset="0">
        <phase duration="82" state="GG"/>
        <phase duration="3"  state="yy"/>
        <phase duration="5"  state="rr"/>
    </tlLogic>
    <tlLogic id="11560971083" type="static" programID="0" offset="0">
        <phase duration="42" state="GggGGgrrrr"/>
        <phase duration="3"  state="yyyyyyrrrr"/>
        <phase duration="42" state="rrrrrrGGGG"/>
        <phase duration="3"  state="rrrrrryyyy"/>
    </tlLogic>
    <tlLogic id="11577654107" type="static" programID="0" offset="0">
        <phase duration="82" state="GgGg"/>
        <phase duration="3"  state="yyyy"/>
        <phase duration="5"  state="rrrr"/>
    </tlLogic>
    <tlLogic id="11579740971" type="static" programID="0" offset="0">
        <phase duration="80" state="G"/>
        <phase duration="5"  state="y"/>
        <phase duration="5"  state="r"/>
    </tlLogic>
    <tlLogic id="1201119677" type="static" programID="0" offset="0">
        <phase duration="79" state="G"/>
        <phase duration="6"  state="y"/>
        <phase duration="5"  state="r"/>
    </tlLogic>
    <tlLogic id="12299194497" type="static" programID="0" offset="0">
        <phase duration="82" state="G"/>
        <phase duration="3"  state="y"/>
        <phase duration="5"  state="r"/>
    </tlLogic>
    <tlLogic id="12299253501" type="static" programID="0" offset="0">
        <phase duration="82" state="G"/>
        <phase duration="3"  state="y"/>
        <phase duration="5"  state="r"/>
    </tlLogic>
    <tlLogic id="12301320452" type="static" programID="0" offset="0">
        <phase duration="79" state="GGG"/>
        <phase duration="6"  state="yyy"/>
        <phase duration="5"  state="rrr"/>
    </tlLogic>
    <tlLogic id="12301320480" type="static" programID="0" offset="0">
        <phase duration="79" state="GGGG"/>
        <phase duration="6"  state="yyyy"/>
        <phase duration="5"  state="rrrr"/>
    </tlLogic>
    <tlLogic id="12301390223" type="static" programID="0" offset="0">
        <phase duration="82" state="G"/>
        <phase duration="3"  state="y"/>
        <phase duration="5"  state="r"/>
    </tlLogic>
    <tlLogic id="12301390224" type="static" programID="0" offset="0">
        <phase duration="82" state="G"/>
        <phase duration="3"  state="y"/>
        <phase duration="5"  state="r"/>
    </tlLogic>
    <tlLogic id="12319216543" type="static" programID="0" offset="0">
        <phase duration="82" state="G"/>
        <phase duration="3"  state="y"/>
        <phase duration="5"  state="r"/>
    </tlLogic>
    <tlLogic id="12319216545" type="static" programID="0" offset="0">
        <phase duration="79" state="G"/>
        <phase duration="6"  state="y"/>
        <phase duration="5"  state="r"/>
    </tlLogic>
    <tlLogic id="12319216546" type="static" programID="0" offset="0">
        <phase duration="82" state="G"/>
        <phase duration="3"  state="y"/>
        <phase duration="5"  state="r"/>
    </tlLogic>
    <tlLogic id="12338975955" type="static" programID="0" offset="0">
        <phase duration="79" state="GG"/>
        <phase duration="6"  state="yy"/>
        <phase duration="5"  state="rr"/>
    </tlLogic>
    <tlLogic id="12338975964" type="static" programID="0" offset="0">
        <phase duration="82" state="G"/>
        <phase duration="3"  state="y"/>
        <phase duration="5"  state="r"/>
    </tlLogic>
    <tlLogic id="12381881672" type="static" programID="0" offset="0">
        <phase duration="79" state="GG"/>
        <phase duration="6"  state="yy"/>
        <phase duration="5"  state="rr"/>
    </tlLogic>
    <tlLogic id="12381881673" type="static" programID="0" offset="0">
        <phase duration="79" state="GG"/>
        <phase duration="6"  state="yy"/>
        <phase duration="5"  state="rr"/>
    </tlLogic>
    <tlLogic id="12382049506" type="static" programID="0" offset="0">
        <phase duration="79" state="GG"/>
        <phase duration="6"  state="yy"/>
        <phase duration="5"  state="rr"/>
    </tlLogic>
    <tlLogic id="12382049509" type="static" programID="0" offset="0">
        <phase duration="79" state="G"/>
        <phase duration="6"  state="y"/>
        <phase duration="5"  state="r"/>
    </tlLogic>
    <tlLogic id="12382049521" type="static" programID="0" offset="0">
        <phase duration="80" state="G"/>
        <phase duration="5"  state="y"/>
        <phase duration="5"  state="r"/>
    </tlLogic>
    <tlLogic id="12382049524" type="static" programID="0" offset="0">
        <phase duration="79" state="GGG"/>
        <phase duration="6"  state="yyy"/>
        <phase duration="5"  state="rrr"/>
    </tlLogic>
    <tlLogic id="12382049540" type="static" programID="0" offset="0">
        <phase duration="79" state="GG"/>
        <phase duration="6"  state="yy"/>
        <phase duration="5"  state="rr"/>
    </tlLogic>
    <tlLogic id="12382339973" type="static" programID="0" offset="0">
        <phase duration="82" state="G"/>
        <phase duration="3"  state="y"/>
        <phase duration="5"  state="r"/>
    </tlLogic>
    <tlLogic id="12400405874" type="static" programID="0" offset="0">
        <phase duration="80" state="G"/>
        <phase duration="5"  state="y"/>
        <phase duration="5"  state="r"/>
    </tlLogic>
    <tlLogic id="12406576519" type="static" programID="0" offset="0">
        <phase duration="80" state="GG"/>
        <phase duration="5"  state="yy"/>
        <phase duration="5"  state="rr"/>
    </tlLogic>
    <tlLogic id="12415294588" type="static" programID="0" offset="0">
        <phase duration="80" state="G"/>
        <phase duration="5"  state="y"/>
        <phase duration="5"  state="r"/>
    </tlLogic>
    <tlLogic id="12415388687" type="static" programID="0" offset="0">
        <phase duration="82" state="GG"/>
        <phase duration="3"  state="yy"/>
        <phase duration="5"  state="rr"/>
    </tlLogic>
    <tlLogic id="12415410704" type="static" programID="0" offset="0">
        <phase duration="80" state="GG"/>
        <phase duration="5"  state="yy"/>
        <phase duration="5"  state="rr"/>
    </tlLogic>
    <tlLogic id="1277109104" type="static" programID="0" offset="0">
        <phase duration="80" state="G"/>
        <phase duration="5"  state="y"/>
        <phase duration="5"  state="r"/>
    </tlLogic>
    <tlLogic id="1455755620" type="static" programID="0" offset="0">
        <phase duration="82" state="GG"/>
        <phase duration="3"  state="yy"/>
        <phase duration="5"  state="rr"/>
    </tlLogic>
    <tlLogic id="1763582354" type="static" programID="0" offset="0">
        <phase duration="80" state="G"/>
        <phase duration="5"  state="y"/>
        <phase duration="5"  state="r"/>
    </tlLogic>
    <tlLogic id="1763613693" type="static" programID="0" offset="0">
        <phase duration="79" state="G"/>
        <phase duration="6"  state="y"/>
        <phase duration="5"  state="r"/>
    </tlLogic>
    <tlLogic id="1770022636" type="static" programID="0" offset="0">
        <phase duration="82" state="G"/>
        <phase duration="3"  state="y"/>
        <phase duration="5"  state="r"/>
    </tlLogic>
    <tlLogic id="1770022772" type="static" programID="0" offset="0">
        <phase duration="79" state="G"/>
        <phase duration="6"  state="y"/>
        <phase duration="5"  state="r"/>
    </tlLogic>
    <tlLogic id="1878424832" type="static" programID="0" offset="0">
        <phase duration="80" state="G"/>
        <phase duration="5"  state="y"/>
        <phase duration="5"  state="r"/>
    </tlLogic>
    <tlLogic id="251120905" type="static" programID="0" offset="0">
        <phase duration="80" state="G"/>
        <phase duration="5"  state="y"/>
        <phase duration="5"  state="r"/>
    </tlLogic>
    <tlLogic id="251136202" type="static" programID="0" offset="0">
        <phase duration="79" state="GGGG"/>
        <phase duration="6"  state="yyyy"/>
        <phase duration="5"  state="rrrr"/>
    </tlLogic>
    <tlLogic id="258914024" type="static" programID="0" offset="0">
        <phase duration="82" state="GGGG"/>
        <phase duration="3"  state="yyyy"/>
        <phase duration="5"  state="rrrr"/>
    </tlLogic>
    <tlLogic id="258914039" type="static" programID="0" offset="0">
        <phase duration="79" state="GG"/>
        <phase duration="6"  state="yy"/>
        <phase duration="5"  state="rr"/>
    </tlLogic>
    <tlLogic id="258914044" type="static" programID="0" offset="0">
        <phase duration="79" state="GG"/>
        <phase duration="6"  state="yy"/>
        <phase duration="5"  state="rr"/>
    </tlLogic>
    <tlLogic id="258914051" type="static" programID="0" offset="0">
        <phase duration="79" state="GGG"/>
        <phase duration="6"  state="yyy"/>
        <phase duration="5"  state="rrr"/>
    </tlLogic>
    <tlLogic id="259081958" type="static" programID="0" offset="0">
        <phase duration="79" state="GGG"/>
        <phase duration="6"  state="yyy"/>
        <phase duration="5"  state="rrr"/>
    </tlLogic>
    <tlLogic id="260620213" type="static" programID="0" offset="0">
        <phase duration="79" state="GG"/>
        <phase duration="6"  state="yy"/>
        <phase duration="5"  state="rr"/>
    </tlLogic>
    <tlLogic id="304016209" type="static" programID="0" offset="0">
        <phase duration="79" state="GG"/>
        <phase duration="6"  state="yy"/>
        <phase duration="5"  state="rr"/>
    </tlLogic>
    <tlLogic id="304648338" type="static" programID="0" offset="0">
        <phase duration="82" state="G"/>
        <phase duration="3"  state="y"/>
        <phase duration="5"  state="r"/>
    </tlLogic>
    <tlLogic id="304650850" type="static" programID="0" offset="0">
        <phase duration="79" state="GG"/>
        <phase duration="6"  state="yy"/>
        <phase duration="5"  state="rr"/>
    </tlLogic>
    <tlLogic id="3550224977" type="static" programID="0" offset="0">
        <phase duration="82" state="G"/>
        <phase duration="3"  state="y"/>
        <phase duration="5"  state="r"/>
    </tlLogic>
    <tlLogic id="3550721279" type="static" programID="0" offset="0">
        <phase duration="79" state="GG"/>
        <phase duration="6"  state="yy"/>
        <phase duration="5"  state="rr"/>
    </tlLogic>
    <tlLogic id="3838769472" type="static" programID="0" offset="0">
        <phase duration="79" state="G"/>
        <phase duration="6"  state="y"/>
        <phase duration="5"  state="r"/>
    </tlLogic>
    <tlLogic id="3838769492" type="static" programID="0" offset="0">
        <phase duration="79" state="GG"/>
        <phase duration="6"  state="yy"/>
        <phase duration="5"  state="rr"/>
    </tlLogic>
    <tlLogic id="3838769493" type="static" programID="0" offset="0">
        <phase duration="79" state="G"/>
        <phase duration="6"  state="y"/>
        <phase duration="5"  state="r"/>
    </tlLogic>
    <tlLogic id="3838769494" type="static" programID="0" offset="0">
        <phase duration="79" state="G"/>
        <phase duration="6"  state="y"/>
        <phase duration="5"  state="r"/>
    </tlLogic>
    <tlLogic id="4035764230" type="static" programID="0" offset="0">
        <phase duration="80" state="G"/>
        <phase duration="5"  state="y"/>
        <phase duration="5"  state="r"/>
    </tlLogic>
    <tlLogic id="4035764239" type="static" programID="0" offset="0">
        <phase duration="82" state="G"/>
        <phase duration="3"  state="y"/>
        <phase duration="5"  state="r"/>
    </tlLogic>
    <tlLogic id="4035783909" type="static" programID="0" offset="0">
        <phase duration="82" state="GG"/>
        <phase duration="3"  state="yy"/>
        <phase duration="5"  state="rr"/>
    </tlLogic>
    <tlLogic id="4035783910" type="static" programID="0" offset="0">
        <phase duration="82" state="GG"/>
        <phase duration="3"  state="yy"/>
        <phase duration="5"  state="rr"/>
    </tlLogic>
    <tlLogic id="461609862" type="static" programID="0" offset="0">
        <phase duration="79" state="G"/>
        <phase duration="6"  state="y"/>
        <phase duration="5"  state="r"/>
    </tlLogic>
    <tlLogic id="461609864" type="static" programID="0" offset="0">
        <phase duration="79" state="GG"/>
        <phase duration="6"  state="yy"/>
        <phase duration="5"  state="rr"/>
    </tlLogic>
    <tlLogic id="461611005" type="static" programID="0" offset="0">
        <phase duration="79" state="GG"/>
        <phase duration="6"  state="yy"/>
        <phase duration="5"  state="rr"/>
    </tlLogic>
    <tlLogic id="4959532409" type="static" programID="0" offset="0">
        <phase duration="79" state="GG"/>
        <phase duration="6"  state="yy"/>
        <phase duration="5"  state="rr"/>
    </tlLogic>
    <tlLogic id="5553928449" type="static" programID="0" offset="0">
        <phase duration="80" state="GG"/>
        <phase duration="5"  state="yy"/>
        <phase duration="5"  state="rr"/>
    </tlLogic>
    <tlLogic id="5613916664" type="static" programID="0" offset="0">
        <phase duration="82" state="GG"/>
        <phase duration="3"  state="yy"/>
        <phase duration="5"  state="rr"/>
    </tlLogic>
    <tlLogic id="5904203914" type="static" programID="0" offset="0">
        <phase duration="80" state="GG"/>
        <phase duration="5"  state="yy"/>
        <phase duration="5"  state="rr"/>
    </tlLogic>
    <tlLogic id="5904203915" type="static" programID="0" offset="0">
        <phase duration="82" state="G"/>
        <phase duration="3"  state="y"/>
        <phase duration="5"  state="r"/>
    </tlLogic>
    <tlLogic id="6285626422" type="static" programID="0" offset="0">
        <phase duration="79" state="GG"/>
        <phase duration="6"  state="yy"/>
        <phase duration="5"  state="rr"/>
    </tlLogic>
    <tlLogic id="6537061495" type="static" programID="0" offset="0">
        <phase duration="82" state="GgGg"/>
        <phase duration="3"  state="yyyy"/>
        <phase duration="5"  state="rrrr"/>
    </tlLogic>
    <tlLogic id="6537084569" type="static" programID="0" offset="0">
        <phase duration="80" state="G"/>
        <phase duration="5"  state="y"/>
        <phase duration="5"  state="r"/>
    </tlLogic>
    <tlLogic id="6537094563" type="static" programID="0" offset="0">
        <phase duration="80" state="G"/>
        <phase duration="5"  state="y"/>
        <phase duration="5"  state="r"/>
    </tlLogic>
    <tlLogic id="6565704596" type="static" programID="0" offset="0">
        <phase duration="82" state="GG"/>
        <phase duration="3"  state="yy"/>
        <phase duration="5"  state="rr"/>
    </tlLogic>
    <tlLogic id="6839637308" type="static" programID="0" offset="0">
        <phase duration="82" state="GG"/>
        <phase duration="3"  state="yy"/>
        <phase duration="5"  state="rr"/>
    </tlLogic>
    <tlLogic id="6839637309" type="static" programID="0" offset="0">
        <phase duration="82" state="GG"/>
        <phase duration="3"  state="yy"/>
        <phase duration="5"  state="rr"/>
    </tlLogic>
    <tlLogic id="7302065095" type="static" programID="0" offset="0">
        <phase duration="82" state="G"/>
        <phase duration="3"  state="y"/>
        <phase duration="5"  state="r"/>
    </tlLogic>
    <tlLogic id="7302092991" type="static" programID="0" offset="0">
        <phase duration="82" state="GG"/>
        <phase duration="3"  state="yy"/>
        <phase duration="5"  state="rr"/>
    </tlLogic>
    <tlLogic id="7302101287" type="static" programID="0" offset="0">
        <phase duration="82" state="G"/>
        <phase duration="3"  state="y"/>
        <phase duration="5"  state="r"/>
    </tlLogic>
    <tlLogic id="7302104424" type="static" programID="0" offset="0">
        <phase duration="82" state="G"/>
        <phase duration="3"  state="y"/>
        <phase duration="5"  state="r"/>
    </tlLogic>
    <tlLogic id="7302109665" type="static" programID="0" offset="0">
        <phase duration="82" state="GG"/>
        <phase duration="3"  state="yy"/>
        <phase duration="5"  state="rr"/>
    </tlLogic>
    <tlLogic id="7302189610" type="static" programID="0" offset="0">
        <phase duration="79" state="GGG"/>
        <phase duration="6"  state="yyy"/>
        <phase duration="5"  state="rrr"/>
    </tlLogic>
    <tlLogic id="7302194673" type="static" programID="0" offset="0">
        <phase duration="82" state="GG"/>
        <phase duration="3"  state="yy"/>
        <phase duration="5"  state="rr"/>
    </tlLogic>
    <tlLogic id="7302201485" type="static" programID="0" offset="0">
        <phase duration="82" state="GG"/>
        <phase duration="3"  state="yy"/>
        <phase duration="5"  state="rr"/>
    </tlLogic>
    <tlLogic id="7302470448" type="static" programID="0" offset="0">
        <phase duration="79" state="G"/>
        <phase duration="6"  state="y"/>
        <phase duration="5"  state="r"/>
    </tlLogic>
    <tlLogic id="7302493459" type="static" programID="0" offset="0">
        <phase duration="79" state="GGG"/>
        <phase duration="6"  state="yyy"/>
        <phase duration="5"  state="rrr"/>
    </tlLogic>
    <tlLogic id="7302505913" type="static" programID="0" offset="0">
        <phase duration="80" state="G"/>
        <phase duration="5"  state="y"/>
        <phase duration="5"  state="r"/>
    </tlLogic>
    <tlLogic id="7302513901" type="static" programID="0" offset="0">
        <phase duration="80" state="G"/>
        <phase duration="5"  state="y"/>
        <phase duration="5"  state="r"/>
    </tlLogic>
    <tlLogic id="7302515219" type="static" programID="0" offset="0">
        <phase duration="80" state="G"/>
        <phase duration="5"  state="y"/>
        <phase duration="5"  state="r"/>
    </tlLogic>
    <tlLogic id="7302517640" type="static" programID="0" offset="0">
        <phase duration="80" state="G"/>
        <phase duration="5"  state="y"/>
        <phase duration="5"  state="r"/>
    </tlLogic>
    <tlLogic id="7303571374" type="static" programID="0" offset="0">
        <phase duration="82" state="G"/>
        <phase duration="3"  state="y"/>
        <phase duration="5"  state="r"/>
    </tlLogic>
    <tlLogic id="7303716096" type="static" programID="0" offset="0">
        <phase duration="82" state="G"/>
        <phase duration="3"  state="y"/>
        <phase duration="5"  state="r"/>
    </tlLogic>
    <tlLogic id="7303739785" type="static" programID="0" offset="0">
        <phase duration="82" state="GG"/>
        <phase duration="3"  state="yy"/>
        <phase duration="5"  state="rr"/>
    </tlLogic>
    <tlLogic id="7303769836" type="static" programID="0" offset="0">
        <phase duration="79" state="GG"/>
        <phase duration="6"  state="yy"/>
        <phase duration="5"  state="rr"/>
    </tlLogic>
    <tlLogic id="7303900856" type="static" programID="0" offset="0">
        <phase duration="79" state="GGG"/>
        <phase duration="6"  state="yyy"/>
        <phase duration="5"  state="rrr"/>
    </tlLogic>
    <tlLogic id="7303905449" type="static" programID="0" offset="0">
        <phase duration="82" state="GG"/>
        <phase duration="3"  state="yy"/>
        <phase duration="5"  state="rr"/>
    </tlLogic>
    <tlLogic id="7303907713" type="static" programID="0" offset="0">
        <phase duration="82" state="GG"/>
        <phase duration="3"  state="yy"/>
        <phase duration="5"  state="rr"/>
    </tlLogic>
    <tlLogic id="7308927365" type="static" programID="0" offset="0">
        <phase duration="79" state="GG"/>
        <phase duration="6"  state="yy"/>
        <phase duration="5"  state="rr"/>
    </tlLogic>
    <tlLogic id="7308943220" type="static" programID="0" offset="0">
        <phase duration="82" state="G"/>
        <phase duration="3"  state="y"/>
        <phase duration="5"  state="r"/>
    </tlLogic>
    <tlLogic id="7308996798" type="static" programID="0" offset="0">
        <phase duration="80" state="G"/>
        <phase duration="5"  state="y"/>
        <phase duration="5"  state="r"/>
    </tlLogic>
    <tlLogic id="7309084515" type="static" programID="0" offset="0">
        <phase duration="82" state="GG"/>
        <phase duration="3"  state="yy"/>
        <phase duration="5"  state="rr"/>
    </tlLogic>
    <tlLogic id="7695182453" type="static" programID="0" offset="0">
        <phase duration="80" state="G"/>
        <phase duration="5"  state="y"/>
        <phase duration="5"  state="r"/>
    </tlLogic>
    <tlLogic id="7695220543" type="static" programID="0" offset="0">
        <phase duration="79" state="GGG"/>
        <phase duration="6"  state="yyy"/>
        <phase duration="5"  state="rrr"/>
    </tlLogic>
    <tlLogic id="7695253070" type="static" programID="0" offset="0">
        <phase duration="79" state="GG"/>
        <phase duration="6"  state="yy"/>
        <phase duration="5"  state="rr"/>
    </tlLogic>
    <tlLogic id="7695273885" type="static" programID="0" offset="0">
        <phase duration="79" state="GG"/>
        <phase duration="6"  state="yy"/>
        <phase duration="5"  state="rr"/>
    </tlLogic>
    <tlLogic id="7695277199" type="static" programID="0" offset="0">
        <phase duration="82" state="GG"/>
        <phase duration="3"  state="yy"/>
        <phase duration="5"  state="rr"/>
    </tlLogic>
    <tlLogic id="7695309911" type="static" programID="0" offset="0">
        <phase duration="79" state="GG"/>
        <phase duration="6"  state="yy"/>
        <phase duration="5"  state="rr"/>
    </tlLogic>
    <tlLogic id="9293992910" type="static" programID="0" offset="0">
        <phase duration="82" state="GG"/>
        <phase duration="3"  state="yy"/>
        <phase duration="5"  state="rr"/>
    </tlLogic>
    <tlLogic id="9415156170" type="static" programID="0" offset="0">
        <phase duration="82" state="G"/>
        <phase duration="3"  state="y"/>
        <phase duration="5"  state="r"/>
    </tlLogic>
    <tlLogic id="9415156171" type="static" programID="0" offset="0">
        <phase duration="79" state="G"/>
        <phase duration="6"  state="y"/>
        <phase duration="5"  state="r"/>
    </tlLogic>
    <tlLogic id="9582316784" type="static" programID="0" offset="0">
        <phase duration="82" state="G"/>
        <phase duration="3"  state="y"/>
        <phase duration="5"  state="r"/>
    </tlLogic>
    <tlLogic id="9596312635" type="static" programID="0" offset="0">
        <phase duration="82" state="G"/>
        <phase duration="3"  state="y"/>
        <phase duration="5"  state="r"/>
    </tlLogic>
    <tlLogic id="9596312636" type="static" programID="0" offset="0">
        <phase duration="79" state="G"/>
        <phase duration="6"  state="y"/>
        <phase duration="5"  state="r"/>
    </tlLogic>
    <tlLogic id="9724652157" type="static" programID="0" offset="0">
        <phase duration="82" state="GG"/>
        <phase duration="3"  state="yy"/>
        <phase duration="5"  state="rr"/>
    </tlLogic>
    <tlLogic id="9724652168" type="static" programID="0" offset="0">
        <phase duration="82" state="GG"/>
        <phase duration="3"  state="yy"/>
        <phase duration="5"  state="rr"/>
    </tlLogic>
    <tlLogic id="9724966044" type="static" programID="0" offset="0">
        <phase duration="80" state="G"/>
        <phase duration="5"  state="y"/>
        <phase duration="5"  state="r"/>
    </tlLogic>
    <tlLogic id="9731974992" type="static" programID="0" offset="0">
        <phase duration="82" state="GG"/>
        <phase duration="3"  state="yy"/>
        <phase duration="5"  state="rr"/>
    </tlLogic>
    <tlLogic id="9734221018" type="static" programID="0" offset="0">
        <phase duration="82" state="GG"/>
        <phase duration="3"  state="yy"/>
        <phase duration="5"  state="rr"/>
    </tlLogic>
    <tlLogic id="9734221020" type="static" programID="0" offset="0">
        <phase duration="79" state="G"/>
        <phase duration="6"  state="y"/>
        <phase duration="5"  state="r"/>
    </tlLogic>
    <tlLogic id="990471005" type="static" programID="0" offset="0">
        <phase duration="40" state="GGggrrrrGGggrrrr"/>
        <phase duration="5"  state="yyyyrrrryyyyrrrr"/>
        <phase duration="40" state="rrrrGGggrrrrGGgg"/>
        <phase duration="5"  state="rrrryyyyrrrryyyy"/>
    </tlLogic>
    <tlLogic id="GS_1181581340" type="static" programID="0" offset="0">
        <phase duration="24" state="rrrrGGggrrrrrrrrGGgg"/>
        <phase duration="6"  state="rrrryyyyrrrrrrrryyyy"/>
        <phase duration="24" state="GGggrrrrGGggrrrrrrrr"/>
        <phase duration="6"  state="yyyyrrrryyyyrrrrrrrr"/>
        <phase duration="24" state="rrrrrrrrrrrrGGGGrrrr"/>
        <phase duration="6"  state="rrrrrrrrrrrryyyyrrrr"/>
    </tlLogic>
    <tlLogic id="GS_1183478938" type="static" programID="0" offset="0">
        <phase duration="42" state="GggrrrGGg"/>
        <phase duration="3"  state="yyyrrryyy"/>
        <phase duration="42" state="rrrGGgGrr"/>
        <phase duration="3"  state="rrryyyyrr"/>
    </tlLogic>
    <tlLogic id="GS_1277094912" type="static" programID="0" offset="0">
        <phase duration="40" state="GGgrrrGgg"/>
        <phase duration="5"  state="yyyrrryyy"/>
        <phase duration="40" state="rrrGGGrrr"/>
        <phase duration="5"  state="rrryyyrrr"/>
    </tlLogic>
    <tlLogic id="GS_1878447324" type="static" programID="0" offset="0">
        <phase duration="39" state="rrGG"/>
        <phase duration="6"  state="rryy"/>
        <phase duration="39" state="GGrr"/>
        <phase duration="6"  state="yyrr"/>
    </tlLogic>
    <tlLogic id="GS_307516491" type="static" programID="0" offset="0">
        <phase duration="40" state="GGgGrr"/>
        <phase duration="5"  state="yyyyrr"/>
        <phase duration="40" state="rrrGGG"/>
        <phase duration="5"  state="rrryyy"/>
    </tlLogic>
    <tlLogic id="GS_307516506" type="static" programID="0" offset="0">
        <phase duration="42" state="GGrr"/>
        <phase duration="3"  state="yyrr"/>
        <phase duration="42" state="rrGG"/>
        <phase duration="3"  state="rryy"/>
    </tlLogic>
    <tlLogic id="GS_3842874895" type="static" programID="0" offset="0">
        <phase duration="42" state="GgGrr"/>
        <phase duration="3"  state="yyyrr"/>
        <phase duration="42" state="rrGGG"/>
        <phase duration="3"  state="rryyy"/>
    </tlLogic>
    <tlLogic id="GS_451945087" type="static" programID="0" offset="0">
        <phase duration="80" state="GggGGg"/>
        <phase duration="5"  state="yyyyyy"/>
        <phase duration="5"  state="rrrrrr"/>
    </tlLogic>
    <tlLogic id="GS_462245770" type="static" programID="0" offset="0">
        <phase duration="42" state="GGrrr"/>
        <phase duration="3"  state="yyrrr"/>
        <phase duration="42" state="rrGGG"/>
        <phase duration="3"  state="rryyy"/>
    </tlLogic>
    <tlLogic id="joinedS_12299215063_12430915281_12430915282_12430915283_#2more" type="static" programID="0" offset="0">
        <phase duration="16" state="GrrrGGGrrrrrrrrrrGGGrrrrGGGrrrGGrr"/>
        <phase duration="5"  state="yrrryyyrrrrrrrrrryyyrrrryyyrrryyrr"/>
        <phase duration="18" state="rGggGrGgggGggGrrGgggGrrGgggGggGGrr"/>
        <phase duration="5"  state="ryyyyryyyyyyyyrryyyyyrryyyyyyyyyrr"/>
        <phase duration="18" state="rGGgrrrGggrrrrrrrGGGGGGGrrrrrrGGrr"/>
        <phase duration="5"  state="ryyyrrryyyrrrrrrryyyyyyyrrrrrryyrr"/>
        <phase duration="18" state="rGGgrrrGggrrrGGGGrrrrrrrGGGrrrGGGG"/>
        <phase duration="5"  state="ryyyrrryyyrrryyyyrrrrrrryyyrrryyyy"/>
    </tlLogic>
    <tlLogic id="joinedS_12382049567_12382049568_9893370457" type="static" programID="0" offset="0">
        <phase duration="39" state="GGGr"/>
        <phase duration="6"  state="yyyr"/>
        <phase duration="39" state="GGrG"/>
        <phase duration="6"  state="yyry"/>
    </tlLogic>
    <tlLogic id="joinedS_12412695929_259081952_9400417088" type="static" programID="0" offset="0">