<edges xmlns:xsi="http://www.w3.org/2001/XMLSchema-instance" version="1.16" xsi:noNamespaceSchemaLocation="http://sumo.dlr.de/xsd/edges_file.xsd">
    <location netOffset="-486589.00,-5417504.42" convBoundary="0.00,0.00,10286.28,10466.02" origBoundary="2.796723,48.891655,3.062785,49.004682" projParameter="+proj=utm +zone=31 +ellps=WGS84 +datum=WGS84 +units=m +no_defs" />

    <edge id="-1002414128" from="1277280880" to="1277280708" priority="4" type="highway.unclassified" numLanes="1" speed="13.89" shape="7218.20,5766.87 7210.65,5778.03 7208.66,5855.82" disallow="tram rail_urban rail rail_electric rail_fast ship" />
    <edge id="-1014451012#0" from="9724602596" to="9359279619" priority="3" type="highway.residential" numLanes="1" speed="2.78" disallow="tram rail_urban rail rail_electric rail_fast ship" />
    <edge id="-1014451012#1" from="9359279622" to="9724602596" priority="3" type="highway.residential" numLanes="1" speed="2.78" shape="5728.07,4225.20 5749.15,4198.81 5757.45,4198.80 5808.56,4236.48" disallow="tram rail_urban rail rail_electric rail_fast ship" />
    <edge id="-1018473429#0" from="12301926938" to="9393882267" priority="3" type="highway.residential" numLanes="1" speed="13.89" shape="8274.87,5213.08 8274.86,5212.12 8274.87,5206.06" disallow="tram rail_urban rail rail_electric rail_fast ship" />
    <edge id="-1018473429#1" from="12299215079" to="12301926938" priority="3" type="highway.residential" numLanes="1" speed="13.89" disallow="tram rail_urban rail rail_electric rail_fast ship" />
    <edge id="-1018473429#2" from="12430929853" to="12299215079" priority="3" type="highway.residential" numLanes="1" speed="13.89" shape="8283.14,5312.95 8282.76,5270.54 8275.24,5224.57 8274.87,5215.98" disallow="tram rail_urban rail rail_electric rail_fast ship" />
    <edge id="-1018473429#3" from="9393882265" to="12430929853" priority="3" type="highway.residential" numLanes="1" speed="13.89" shape="8279.26,5325.35 8283.18,5317.84 8283.14,5312.95" disallow="tram rail_urban rail rail_electric rail_fast ship" />
    <edge id="-1019237461#0" from="10109110005" to="316523248" priority="3" type="highway.residential" numLanes="1" speed="13.89" shape="6192.16,1605.95 6185.52,1624.36 6185.73,1627.74 6185.94,1631.12" disallow="tram rail_urban rail rail_electric rail_fast ship" />
    <edge id="-1019237461#1" from="450581818" to="10109110005" priority="3" type="highway.residential" numLanes="1" speed="13.89" disallow="tram rail_urban rail rail_electric rail_fast ship" />
    <edge id="-1019237461#2" from="451000772" to="450581818" priority="3" type="highway.residential" numLanes="1" speed="13.89" disallow="tram rail_urban rail rail_electric rail_fast ship" />
    <edge id="-1019237461#3" from="409876092" to="451000772" priority="3" type="highway.residential" numLanes="1" speed="13.89" shape="6313.59,1395.38 6226.25,1517.34 6211.58,1543.57 6207.46,1557.60" disallow="tram rail_urban rail rail_electric rail_fast ship" />
    <edge id="-1019237462" from="451000772" to="451000763" priority="3" type="highway.residential" numLanes="1" speed="13.89" shape="6207.46,1557.60 6194.36,1536.92 6175.28,1501.75 6149.69,1463.88 6132.19,1431.78 6113.11,1397.71 6105.01,1381.35 6100.15,1368.56" disallow="tram rail_urban rail rail_electric rail_fast ship" />
    <edge id="-1019237469" from="409876105" to="409876101" priority="3" type="highway.residential" numLanes="1" speed="13.89" shape="6581.59,1090.76 6538.74,1114.81 6504.03,1140.37" disallow="tram rail_urban rail rail_electric rail_fast ship" />
    <edge id="-1019237470" from="9400856203" to="9400856204" priority="3" type="highway.residential" numLanes="1" speed="13.89" disallow="tram rail_urban rail rail_electric rail_fast ship" />
    <edge id="-1019237472" from="9400856221" to="9400856223" priority="3" type="highway.residential" numLanes="1" speed="13.89" shape="7116.12,1521.49 7118.80,1551.76 7127.78,1588.05" disallow="tram rail_urban rail rail_electric rail_fast ship" />
    <edge id="-1019237476" from="1962940974" to="1962941127" priority="3" type="highway.residential" numLanes="1" speed="13.89" shape="8250.75,1104.51 8245.46,1116.56 8245.02,1122.33 8242.37,1126.94 8235.59,1129.11" disallow="tram rail_urban rail rail_electric rail_fast ship" />
    <edge id="-1019237481" from="9400856380" to="9400856381" priority="4" type="highway.unclassified" numLanes="1" speed="13.89" disallow="tram rail_urban rail rail_electric rail_fast ship" />
    <edge id="-1019237484" from="9400856392" to="9400856393" priority="3" type="highway.residential" numLanes="1" speed="13.89" disallow="tram rail_urban rail rail_electric rail_fast ship" />
    <edge id="-1019443758" from="9402538789" to="1747011494" priority="3" type="highway.residential" numLanes="1" speed="13.89" shape="3877.86,2014.74 3853.75,1986.42 3840.05,1976.08" disallow="tram rail_urban rail rail_electric rail_fast ship" />
    <edge id="-1019443766" from="9402538834" to="9402538841" priority="3" type="highway.residential" numLanes="1" speed="13.89" shape="3407.51,2335.49 3398.59,2341.13 3394.60,2340.65 3389.09,2332.93 3385.40,2330.79 3379.71,2329.91 3341.41,2341.09 3337.28,2342.58" disallow="tram rail_urban rail rail_electric rail_fast ship" />
    <edge id="-1019443767" from="9402538842" to="534924626" priority="3" type="highway.residential" numLanes="1" speed="13.89" disallow="tram rail_urban rail rail_electric rail_fast ship" />
    <edge id="-1019443772" from="9402538866" to="9402538858" priority="3" type="highway.residential" numLanes="1" speed="13.89" disallow="tram rail_urban rail rail_electric rail_fast ship" />
    <edge id="-1019443773" from="9402538867" to="9402538859" priority="3" type="highway.residential" numLanes="1" speed="13.89" disallow="tram rail_urban rail rail_electric rail_fast ship" />
    <edge id="-1019443775#0" from="9402538866" to="9402538868" priority="3" type="highway.residential" numLanes="1" speed="13.89" disallow="tram rail_urban rail rail_electric rail_fast ship" />
    <edge id="-1019443775#1" from="9402538867" to="9402538866" priority="3" type="highway.residential" numLanes="1" speed="13.89" disallow="tram rail_urban rail rail_electric rail_fast ship" />
    <edge id="-1019443779" from="6585253200" to="6585253201" priority="4" type="highway.unclassified" numLanes="1" speed="13.89" disallow="tram rail_urban rail rail_electric rail_fast ship" />
    <edge id="-1019461398" from="3565298797" to="9402668571" priority="4" type="highway.unclassified" numLanes="1" speed="13.89" shape="4274.09,3270.86 4278.24,3261.62 4312.32,3243.09" disallow="tram rail_urban rail rail_electric rail_fast ship" />
    <edge id="-1019461399" from="9402668572" to="9402668573" priority="4" type="highway.unclassified" numLanes="1" speed="13.89" disallow="tram rail_urban rail rail_electric rail_fast ship" />
    <edge id="-1019461400#0" from="9402668573" to="9402668574" priority="4" type="highway.unclassified" numLanes="1" speed="13.89" disallow="tram rail_urban rail rail_electric rail_fast ship" />
    <edge id="-1019461400#1" from="9402668576" to="9402668573" priority="4" type="highway.unclassified" numLanes="1" speed="13.89" disallow="tram rail_urban rail rail_electric rail_fast ship" />
    <edge id="-1019513668#0" from="10062374999" to="9403109951" priority="3" type="highway.residential" numLanes="1" speed="13.89" shape="5002.83,2552.24 4999.79,2544.22 4992.99,2531.49 4980.49,2517.31 4967.72,2510.18 4940.12,2504.08" disallow="tram rail_urban rail rail_electric rail_fast ship" />
    <edge id="-1019513668#1" from="9403109946" to="10062374999" priority="3" type="highway.residential" numLanes="1" speed="13.89" disallow="tram rail_urban rail rail_electric rail_fast ship" />
    <edge id="-1019513669#0" from="10062375002" to="9403109957" priority="3" type="highway.residential" numLanes="1" speed="13.89" shape="5057.97,2536.59 5048.36,2500.76 5043.48,2488.86 5037.05,2477.22 5023.18,2462.94 5003.04,2452.31 4943.68,2440.26" disallow="tram rail_urban rail rail_electric rail_fast ship" />
    <edge id="-1019513669#1" from="9403109952" to="10062375002" priority="3" type="highway.residential" numLanes="1" speed="13.89" disallow="tram rail_urban rail rail_electric rail_fast ship" />
    <edge id="-1019513670#0" from="10739616019" to="9403109961" priority="3" type="highway.residential" numLanes="1" speed="13.89" shape="5127.98,2347.92 5120.72,2363.43 5110.09,2386.82 5105.36,2393.50 5101.19,2396.47 5096.45,2398.05 5085.03,2397.97 5041.14,2396.78 5034.10,2393.43 5024.30,2388.75 4997.93,2380.69 4973.22,2373.62 4946.01,2371.54" disallow="tram rail_urban rail rail_electric rail_fast ship" />
    <edge id="-1019513670#1" from="10739616026" to="10739616019" priority="3" type="highway.residential" numLanes="1" speed="13.89" shape="5140.84,2280.12 5138.34,2292.12 5135.35,2300.33 5124.93,2328.36 5125.80,2331.65 5128.52,2334.63 5132.40,2337.82 5127.98,2347.92" disallow="tram rail_urban rail rail_electric rail_fast ship" />
    <edge id="-1019513678" from="9403110027" to="9403110028" priority="3" type="highway.residential" numLanes="1" speed="13.89" disallow="tram rail_urban rail rail_electric rail_fast ship" />
    <edge id="-1019569379" from="9403596776" to="9403596779" priority="3" type="highway.residential" numLanes="1" speed="13.89" shape="8459.81,2963.72 8439.12,2952.58 8427.43,2942.21 8425.00,2935.29" disallow="tram rail_urban rail rail_electric rail_fast ship" />
    <edge id="-1019569381" from="9403596810" to="9403596818" priority="3" type="highway.residential" numLanes="1" speed="13.89" shape="8450.53,3066.56 8452.00,3073.02 8455.64,3080.17 8458.20,3083.10 8466.75,3089.65 8480.60,3097.18 8487.58,3099.53 8504.77,3103.52 8510.93,3104.69" disallow="tram rail_urban rail rail_electric rail_fast ship" />
    <edge id="-1019569383#0" from="9403596809" to="9403596810" priority="3" type="highway.residential" numLanes="1" speed="13.89" disallow="tram rail_urban rail rail_electric rail_fast ship" />
    <edge id="-1019569383#1" from="9403596807" to="9403596809" priority="3" type="highway.residential" numLanes="1" speed="13.89" shape="8451.77,3031.59 8453.65,3042.46 8451.99,3057.55" disallow="tram rail_urban rail rail_electric rail_fast ship" />
    <edge id="-1019569383#2" from="1763573509" to="9403596807" priority="3" type="highway.residential" numLanes="1" speed="13.89" shape="8405.11,2952.59 8403.68,2959.96 8404.76,2965.15 8406.83,2969.94 8411.26,2974.25 8418.03,2978.35 8432.38,2991.27 8435.93,2995.97 8440.15,3002.22 8446.55,3013.58 8451.77,3031.59" disallow="tram rail_urban rail rail_electric rail_fast ship" />
    <edge id="-1019594735" from="9403767004" to="1181581089" priority="3" type="highway.residential" numLanes="1" speed="13.89" shape="3621.51,7000.59 3610.96,7003.82 3602.22,7003.47" disallow="tram rail_urban rail rail_electric rail_fast ship" />
    <edge id="-1019594737" from="1181580912" to="9403767009" priority="3" type="highway.residential" numLanes="1" speed="13.89" disallow="tram rail_urban rail rail_electric rail_fast ship" />
    <edge id="-1019597664" from="9403799604" to="302043657" priority="3" type="highway.residential" numLanes="1" speed="13.89" shape="8547.34,6187.67 8548.21,6173.28 8542.12,6168.29 8529.25,6163.83" disallow="tram rail_urban rail rail_electric rail_fast ship" />
    <edge id="-1019597667" from="9403825834" to="1622633870" priority="3" type="highway.residential" numLanes="1" speed="13.89" shape="8701.23,6807.20 8711.21,6803.38 8767.83,6803.95" disallow="tram rail_urban rail rail_electric rail_fast ship" />
    <edge id="-1019723365" from="1248399392" to="1962940887" priority="4" type="highway.unclassified" numLanes="1" speed="13.89" shape="8239.50,677.89 8293.70,583.57 8320.38,528.69 8407.42,295.03 8432.53,240.93 8506.13,98.32" disallow="tram rail_urban rail rail_electric rail_fast ship" />
    <edge id="-1020061907" from="9408138184" to="9408138185" priority="3" type="highway.residential" numLanes="1" speed="13.89" disallow="tram rail_urban rail rail_electric rail_fast ship" />
    <edge id="-1020061913" from="9408138211" to="2302769921" priority="3" type="highway.residential" numLanes="1" speed="13.89" disallow="tram rail_urban rail rail_electric rail_fast ship" />
    <edge id="-102353824#0" from="9763297513" to="1181581099" priority="3" type="highway.residential" numLanes="1" speed="13.89" shape="3620.52,7247.19 3636.65,7235.90 3647.75,7242.24 3667.99,7233.06" disallow="tram rail_urban rail rail_electric rail_fast ship" />
    <edge id="-102353824#1" from="1181581411" to="9763297513" priority="3" type="highway.residential" numLanes="1" speed="13.89" shape="3593.97,7265.78 3597.41,7263.37 3620.52,7247.19" disallow="tram rail_urban rail rail_electric rail_fast ship" />
    <edge id="-102353826#0" from="1181581378" to="9766193528" priority="3" type="highway.residential" numLanes="1" speed="13.89" disallow="tram rail_urban rail rail_electric rail_fast ship" />
    <edge id="-102353826#1" from="9403767009" to="1181581378" priority="3" type="highway.residential" numLanes="1" speed="13.89" disallow="tram rail_urban rail rail_electric rail_fast ship" />
    <edge id="-102353826#2" from="1181580912" to="9403767009" priority="3" type="highway.residential" numLanes="1" speed="13.89" shape="3787.03,7154.62 3772.17,7158.90 3752.04,7146.02 3756.93,7135.49" disallow="tram rail_urban rail rail_electric rail_fast ship" />
    <edge id="-102353826#3" from="2286531705" to="1181580912" priority="3" type="highway.residential" numLanes="1" speed="13.89" shape="3872.18,7233.58 3847.26,7206.14 3815.34,7176.03 3787.03,7154.62" disallow="tram rail_urban rail rail_electric rail_fast ship" />
    <edge id="-102353826#4" from="1181581185" to="2286531705" priority="3" type="highway.residential" numLanes="1" speed="13.89" shape="3894.68,7328.14 3901.57,7323.94 3917.00,7309.70 3891.42,7276.62 3888.46,7261.93 3882.87,7245.35 3872.18,7233.58" disallow="tram rail_urban rail rail_electric rail_fast ship" />
    <edge id="-102353827" from="1181581374" to="1181581051" priority="3" type="highway.residential" numLanes="1" speed="13.89" shape="3575.40,6970.27 3562.03,6976.88 3523.89,7012.54" disallow="tram rail_urban rail rail_electric rail_fast ship" />
    <edge id="-102353828" from="1181580763" to="1181581137" priority="3" type="highway.residential" numLanes="1" speed="13.89" disallow="tram rail_urban rail rail_electric rail_fast ship" />
    <edge id="-102353832" from="1181581333" to="1181581383" priority="3" type="highway.residential" numLanes="1" speed="13.89" shape="3649.57,6699.10 3613.39,6651.68 3588.16,6634.77" disallow="tram rail_urban rail rail_electric rail_fast ship" />
    <edge id="-102353833" from="1181581122" to="1181581015" priority="3" type="highway.residential" numLanes="1" speed="13.89" shape="3980.88,7399.84 3959.27,7420.30 3949.97,7439.98 3948.64,7446.59" disallow="tram rail_urban rail rail_electric rail_fast ship" />
    <edge id="-102353834#0" from="1181581089" to="1181580822" priority="3" type="highway.residential" numLanes="1" speed="13.89" disallow="tram rail_urban rail rail_electric rail_fast ship" />
    <edge id="-102353834#1" from="1181581374" to="1181581089" priority="3" type="highway.residential" numLanes="1" speed="13.89" disallow="tram rail_urban rail rail_electric rail_fast ship" />
    <edge id="-102353834#2" from="1181581127" to="1181581374" priority="3" type="highway.residential" numLanes="1" speed="13.89" shape="3610.61,6785.47 3589.40,6884.58 3572.90,6949.54 3575.40,6970.27" disallow="tram rail_urban rail rail_electric rail_fast ship" />
    <edge id="-102353834#3" from="1181581333" to="1181581127" priority="3" type="highway.residential" numLanes="1" speed="13.89" shape="3649.57,6699.10 3638.52,6714.22 3624.57,6735.46 3617.07,6753.95 3610.61,6785.47" disallow="tram rail_urban rail rail_electric rail_fast ship" />
    <edge id="-102353834#4" from="1181581119" to="1181581333" priority="3" type="highway.residential" numLanes="1" speed="13.89" shape="3723.72,6679.76 3721.19,6679.45 3702.28,6679.20 3680.68,6683.89 3649.57,6699.10" disallow="tram rail_urban rail rail_electric rail_fast ship" />
    <edge id="-102353835#0" from="1181581062" to="1181581261" priority="3" type="highway.residential" numLanes="1" speed="13.89" disallow="tram rail_urban rail rail_electric rail_fast ship" />
    <edge id="-102353835#1" from="4579132389" to="1181581062" priority="3" type="highway.residential" numLanes="1" speed="13.89" disallow="tram rail_urban rail rail_electric rail_fast ship" />
    <edge id="-102353836" from="1181581227" to="286491851" priority="3" type="highway.residential" numLanes="1" speed="13.89" shape="4082.93,7458.23 4094.91,7458.52 4107.16,7456.44 4130.42,7443.29 4139.09,7437.92" disallow="tram rail_urban rail rail_electric rail_fast ship" />
    <edge id="-102353838" from="1181581143" to="1181580894" priority="3" type="highway.residential" numLanes="1" speed="13.89" shape="3370.35,6888.07 3366.51,6885.11 3285.81,6821.93 3278.47,6817.51" disallow="tram rail_urban rail rail_electric rail_fast ship" />
    <edge id="-102353839" from="1181580921" to="1181581238" priority="3" type="highway.residential" numLanes="1" speed="13.89" shape="3776.22,6512.27 3772.53,6511.06 3746.25,6503.34 3737.67,6505.98 3710.26,6537.02 3702.83,6540.49 3692.43,6542.65 3685.17,6547.43 3650.33,6590.03" disallow="tram rail_urban rail rail_electric rail_fast ship" />
    <edge id="-102353842#0" from="1181580763" to="1181581331" priority="3" type="highway.residential" numLanes="1" speed="13.89" disallow="tram rail_urban rail rail_electric rail_fast ship" />
    <edge id="-102353842#1" from="1181581053" to="1181580763" priority="3" type="highway.residential" numLanes="1" speed="13.89" shape="3806.29,7275.07 3805.93,7270.64 3801.29,7264.85 3793.63,7254.28 3778.31,7233.94 3756.65,7216.12 3733.40,7204.48 3723.01,7199.92" disallow="tram rail_urban rail rail_electric rail_fast ship" />
    <edge id="-102353843" from="1181581189" to="1181580908" priority="3" type="highway.residential" numLanes="1" speed="13.89" disallow="tram rail_urban rail rail_electric rail_fast ship" />
    <edge id="-102353844" from="1181581062" to="1181580925" priority="3" type="highway.residential" numLanes="1" speed="13.89" shape="3910.12,7403.15 3892.28,7382.20 3871.75,7348.76" disallow="tram rail_urban rail rail_electric rail_fast ship" />
    <edge id="-102353846" from="1181581127" to="9737721488" priority="3" type="highway.residential" numLanes="1" speed="13.89" shape="3610.61,6785.47 3532.07,6770.05 3525.17,6791.22" disallow="tram rail_urban rail rail_electric rail_fast ship" />
    <edge id="-102353847#0" from="9725494281" to="1181580862" priority="3" type="highway.residential" numLanes="1" speed="13.89" disallow="tram rail_urban rail rail_electric rail_fast ship" />
    <edge id="-102353847#1" from="1181581227" to="9725494281" priority="3" type="highway.residential" numLanes="1" speed="13.89" shape="4082.93,7458.23 4083.16,7442.77 4079.59,7425.47 4069.68,7406.84 4046.19,7379.81" disallow="tram rail_urban rail rail_electric rail_fast ship" />
    <edge id="-102353849" from="1181581349" to="1181581217" priority="4" type="highway.unclassified" numLanes="1" speed="13.89" shape="3413.09,6720.72 3407.55,6718.97 3352.05,6700.69 3348.80,6685.45" disallow="tram rail_urban rail rail_electric rail_fast ship" />
    <edge id="-102353852#0" from="9766144281" to="1181581068" priority="3" type="highway.residential" numLanes="1" speed="13.89" shape="3854.38,6991.65 3840.30,6967.05 3833.82,6963.07 3812.21,6957.25 3807.78,6957.65" disallow="tram rail_urban rail rail_electric rail_fast ship" />
    <edge id="-102353852#1" from="9766144279" to="9766144281" priority="3" type="highway.residential" numLanes="1" speed="13.89" disallow="tram rail_urban rail rail_electric rail_fast ship" />
    <edge id="-102353852#2" from="1181581298" to="9766144279" priority="3" type="highway.residential" numLanes="1" speed="13.89" shape="3910.42,7047.14 3891.93,7014.64 3872.91,7024.02 3869.40,7017.89" disallow="tram rail_urban rail rail_electric rail_fast ship" />
    <edge id="-102480142" from="1183478710" to="304653089" priority="3" type="highway.residential" numLanes="1" speed="13.89" shape="4179.51,7300.82 4194.55,7329.22 4215.37,7350.67 4218.13,7353.05" disallow="tram rail_urban rail rail_electric rail_fast ship" />
    <edge id="-102480146#0" from="1183478932" to="1183478915" priority="3" type="highway.residential" numLanes="1" speed="8.33" shape="3796.63,7508.20 3783.76,7500.36 3780.85,7495.09 3724.28,7423.24 3717.54,7407.42 3708.45,7357.25 3705.19,7347.26 3684.33,7320.57 3680.43,7315.78 3674.17,7310.68 3672.93,7309.29" disallow="tram rail_urban rail rail_electric rail_fast ship" />
    <edge id="-102480152#0" from="1183479024" to="1183478767" priority="3" type="highway.residential" numLanes="1" speed="13.89" disallow="tram rail_urban rail rail_electric rail_fast ship" />
    <edge id="-102480152#1" from="9732580482" to="1183479024" priority="3" type="highway.residential" numLanes="1" speed="13.89" shape="4051.57,7070.23 4064.29,7081.47 4132.30,7172.64 4198.53,7247.70 4203.02,7255.15 4170.24,7274.70" disallow="tram rail_urban rail rail_electric rail_fast ship" />
    <edge id="-102480152#2" from="9732510898" to="9732580482" priority="3" type="highway.residential" numLanes="1" speed="13.89" shape="4030.32,7055.09 4032.92,7053.74 4051.57,7070.23" disallow="tram rail_urban rail rail_electric rail_fast ship" />
    <edge id="-102480152#3" from="1183478485" to="9732510898" priority="3" type="highway.residential" numLanes="1" speed="13.89" disallow="tram rail_urban rail rail_electric rail_fast ship" />
    <edge id="-102480158" from="1183478932" to="1183478780" priority="3" type="highway.residential" numLanes="1" speed="13.89" shape="3796.63,7508.20 3789.68,7509.45 3721.99,7514.96 3705.88,7513.05 3691.74,7506.68 3683.58,7502.57 3680.48,7496.95 3679.95,7491.46 3661.08,7480.44 3634.40,7458.43 3625.68,7453.83 3589.07,7443.11" disallow="tram rail_urban rail rail_electric rail_fast ship" />
    <edge id="-102480176" from="1183478902" to="1183478712" priority="3" type="highway.residential" numLanes="1" speed="13.89" shape="4084.89,7302.23 4028.15,7232.02 4026.73,7230.21 4025.32,7228.38" disallow="tram rail_urban rail rail_electric rail_fast ship" />
    <edge id="-102480177" from="1183478891" to="1183478655" priority="3" type="highway.residential" numLanes="1" speed="13.89" shape="3582.80,7418.80 3548.29,7408.00 3536.52,7442.89 3532.27,7447.10" disallow="tram rail_urban rail rail_electric rail_fast ship" />
    <edge id="-102480184#0" from="1183478655" to="1181581421" priority="3" type="highway.residential" numLanes="1" speed="8.33" shape="3532.27,7447.10 3503.07,7438.53 3491.44,7435.30" disallow="tram rail_urban rail rail_electric rail_fast ship" />
    <edge id="-102480184#1" from="1183478516" to="1183478655" priority="3" type="highway.residential" numLanes="1" speed="8.33" disallow="tram rail_urban rail rail_electric rail_fast ship" />
    <edge id="-102480188#0" from="1183478897" to="1183478932" priority="3" type="highway.residential" numLanes="1" speed="8.33" shape="3993.87,7554.46 3980.11,7567.10 3958.97,7600.02 3952.29,7610.42 3949.24,7608.63 3926.68,7595.43 3922.09,7592.75 3918.24,7590.50 3880.41,7559.29 3852.27,7542.13 3847.13,7538.99 3796.63,7508.20" disallow="tram rail_urban rail rail_electric rail_fast ship" />
    <edge id="-102480188#1" from="1183478801" to="1183478897" priority="3" type="highway.residential" numLanes="1" speed="8.33" shape="4072.99,7483.86 4066.14,7489.11 4009.53,7538.38 3993.87,7554.46" disallow="tram rail_urban rail rail_electric rail_fast ship" />
    <edge id="-102480188#2" from="1181581227" to="1183478801" priority="3" type="highway.residential" numLanes="1" speed="8.33" shape="4082.93,7458.23 4083.41,7461.01 4082.80,7463.38 4077.36,7478.46 4072.99,7483.86" disallow="tram rail_urban rail rail_electric rail_fast ship" />
    <edge id="-102480196#0" from="3483680900" to="304653080" priority="3" type="highway.residential" numLanes="1" speed="13.89" shape="4369.98,7392.60 4336.07,7364.71 4309.24,7345.60 4274.16,7334.90 4262.01,7334.86 4255.36,7338.01 4250.64,7336.23" disallow="tram rail_urban rail rail_electric rail_fast ship" />
    <edge id="-102480196#1" from="3483680898" to="3483680900" priority="3" type="highway.residential" numLanes="1" speed="13.89" disallow="tram rail_urban rail rail_electric rail_fast ship" />
    <edge id="-102480196#2" from="1183478783" to="3483680898" priority="3" type="highway.residential" numLanes="1" speed="13.89" disallow="tram rail_urban rail rail_electric rail_fast ship" />
    <edge id="-102480215#1" from="1183478712" to="1183478938" priority="3" type="highway.residential" numLanes="1" speed="13.89" shape="4025.32,7228.38 4005.48,7243.49 4003.33,7245.06 3997.32,7248.96" disallow="tram rail_urban rail rail_electric rail_fast ship" />
    <edge id="-102480215#2" from="1183478988" to="1183478712" priority="3" type="highway.residential" numLanes="1" speed="13.89" disallow="tram rail_urban rail rail_electric rail_fast ship" />
    <edge id="-1033940765#0" from="9440326861" to="4958573823" priority="4" type="highway.unclassified" numLanes="1" speed="13.89" shape="4266.41,2895.06 4255.20,2894.59 4250.46,2894.24" disallow="tram rail_urban rail rail_electric rail_fast ship" />
    <edge id="-1033940765#1" from="9440326906" to="9440326861" priority="4" type="highway.unclassified" numLanes="1" speed="13.89" disallow="tram rail_urban rail rail_electric rail_fast ship" />
    <edge id="-1033940765#2" from="9525245526" to="9440326906" priority="4" type="highway.unclassified" numLanes="1" speed="13.89" shape="4390.73,2904.16 4385.74,2903.79 4378.71,2903.28" disallow="tram rail_urban rail rail_electric rail_fast ship" />
    <edge id="-104076523" from="12339006226" to="1763602490" priority="12" type="highway.primary" numLanes="2" speed="13.89" disallow="tram rail_urban rail rail_electric rail_fast ship">
        <param key="ref" value="D 603" />
    </edge>
    <edge id="-104076538#0" from="258914026" to="258914025" priority="12" type="highway.primary" numLanes="2" speed="13.89" disallow="tram rail_urban rail rail_electric rail_fast ship">
        <param key="ref" value="D 603" />
    </edge>
    <edge id="-104076538#2" from="258914028" to="258914026" priority="12" type="highway.primary" numLanes="2" speed="13.89" shape="4691.42,5280.70 4661.17,5298.66 4655.19,5301.66 4647.49,5304.99 4641.26,5307.41 4633.21,5309.66" disallow="tram rail_urban rail rail_electric rail_fast ship">
        <param key="ref" value="D 603" />
    </edge>
    <edge id="-1056831702#0" from="9066720690" to="9399662014" priority="10" type="highway.tertiary" numLanes="1" speed="13.89" disallow="tram rail_urban rail rail_electric rail_fast ship">
        <param key="ref" value="D 17" />
    </edge>
    <edge id="-1056831702#1" from="691215283" to="9066720690" priority="10" type="highway.tertiary" numLanes="1" speed="13.89" disallow="tram rail_urban rail rail_electric rail_fast ship">
        <param key="ref" value="D 17" />
    </edge>
    <edge id="-1058126190" from="1622876669" to="1622876665" priority="3" type="highway.residential" numLanes="1" speed="13.89" disallow="tram rail_urban rail rail_electric rail_fast ship" />
    <edge id="-1058126191" from="1622876655" to="1622876680" priority="3" type="highway.residential" numLanes="1" speed="13.89" disallow="tram rail_urban rail rail_electric rail_fast ship" />
    <edge id="-1058126208" from="1277492680" to="1277492792" priority="3" type="highway.residential" numLanes="1" speed="8.33" disallow="tram rail_urban rail rail_electric rail_fast ship" />
    <edge id="-1058127274" from="9722730647" to="9722730646" priority="3" type="highway.residential" numLanes="1" speed="13.89" disallow="tram rail_urban rail rail_electric rail_fast ship" />
    <edge id="-1058131999#0" from="1622877389" to="1622877412" priority="3" type="highway.residential" numLanes="1" speed="13.89" shape="5950.68,7227.51 5947.48,7277.76 5946.93,7298.64 5947.86,7318.92" disallow="tram rail_urban rail rail_electric rail_fast ship" />
    <edge id="-1058131999#1" from="1622877313" to="1622877389" priority="3" type="highway.residential" numLanes="1" speed="13.89" disallow="tram rail_urban rail rail_electric rail_fast ship" />
    <edge id="-1058131999#2" from="1622877249" to="1622877313" priority="3" type="highway.residential" numLanes="1" speed="13.89" shape="5956.72,7108.52 5956.31,7111.65 5953.54,7167.47" disallow="tram rail_urban rail rail_electric rail_fast ship" />
    <edge id="-1058132000" from="1622877243" to="5002933228" priority="3" type="highway.residential" numLanes="1" speed="13.89" disallow="tram rail_urban rail rail_electric rail_fast ship" />
    <edge id="-1058251754#0" from="6059045982" to="1277094584" priority="3" type="highway.residential" numLanes="1" speed="13.89" disallow="tram rail_urban rail rail_electric rail_fast ship" />
    <edge id="-1058251754#1" from="11955081098" to="6059045982" priority="3" type="highway.residential" numLanes="1" speed="13.89" shape="5201.28,5435.32 5202.08,5437.09 5202.96,5439.03" disallow="tram rail_urban rail rail_electric rail_fast ship" />
    <edge id="-1058251754#2" from="6059045985" to="11955081098" priority="3" type="highway.residential" numLanes="1" speed="13.89" disallow="tram rail_urban rail rail_electric rail_fast ship" />
    <edge id="-1058251754#3" from="9756209355" to="6059045985" priority="3" type="highway.residential" numLanes="1" speed="13.89" disallow="tram rail_urban rail rail_electric rail_fast ship" />
    <edge id="-1058251754#4" from="1277094659" to="9756209355" priority="3" type="highway.residential" numLanes="1" speed="13.89" shape="5160.70,5336.05 5165.43,5344.03 5194.82,5420.32" disallow="tram rail_urban rail rail_electric rail_fast ship" />