<?xml version="1.0" encoding="UTF-8"?>

<!-- generated on 2025-04-09 00:49:26 by Eclipse SUMO netconvert Version 1.19.0
<configuration xmlns:xsi="http://www.w3.org/2001/XMLSchema-instance" xsi:noNamespaceSchemaLocation="http://sumo.dlr.de/xsd/netconvertConfiguration.xsd">

    <input>
        <sumo-net-file value="meaux/meaux.net.xml"/>
    </input>

    <output>
        <plain-output-prefix value="meaux/meaux"/>
    </output>

    <processing>
        <geometry.min-radius.fix.railways value="false"/>
        <geometry.max-grade.fix value="false"/>
        <offset.disable-normalization value="true"/>
        <lefthand value="0"/>
    </processing>

    <tls_building>
        <tls.ignore-internal-junction-jam value="1"/>
    </tls_building>

    <junctions>
        <no-turnarounds value="true"/>
        <junctions.corner-detail value="5"/>
        <junctions.limit-turn-speed value="5.50"/>
        <rectangular-lane-cut value="0"/>
    </junctions>

    <pedestrian>
        <walkingareas value="0"/>
    </pedestrian>

</configuration>
-->

<nodes version="1.16" xmlns:xsi="http://www.w3.org/2001/XMLSchema-instance" xsi:noNamespaceSchemaLocation="http://sumo.dlr.de/xsd/nodes_file.xsd">
    <location netOffset="-486589.00,-5417504.42" convBoundary="0.00,0.00,10286.28,10466.02" origBoundary="2.796723,48.891655,3.062785,49.004682" projParameter="+proj=utm +zone=31 +ellps=WGS84 +datum=WGS84 +units=m +no_defs"/>

    <node id="10021875719" x="4101.64" y="5162.42" type="dead_end"/>
    <node id="10021875726" x="4161.49" y="5169.05" type="dead_end"/>
    <node id="10059021188" x="4174.79" y="5212.55" type="dead_end"/>
    <node id="10059021203" x="4154.55" y="5279.20" type="dead_end"/>
    <node id="10059021204" x="4171.92" y="5275.84" type="dead_end"/>
    <node id="10059021210" x="4132.84" y="5153.57" type="dead_end"/>
    <node id="10059021211" x="4133.75" y="5158.72" type="dead_end"/>
    <node id="10059021212" x="4134.13" y="5161.10" type="dead_end"/>
    <node id="10061046435" x="4174.54" y="5166.67" type="priority"/>
    <node id="10061046441" x="4254.29" y="5242.34" type="right_before_left"/>
    <node id="10061046448" x="4320.76" y="5202.84" type="right_before_left"/>
    <node id="10061046463" x="4134.78" y="4918.47" type="priority"/>
    <node id="10061046468" x="4126.09" y="4932.17" type="right_before_left"/>
    <node id="10061046486" x="4203.68" y="5157.08" type="priority"/>
    <node id="10061046487" x="4208.33" y="5157.87" type="right_before_left"/>
    <node id="10061046491" x="4219.74" y="5165.41" type="priority"/>
    <node id="10061046493" x="4306.91" y="5252.24" type="dead_end"/>
    <node id="10061046494" x="4308.51" y="5236.87" type="priority"/>
    <node id="10061046495" x="4219.25" y="5267.40" type="priority"/>
    <node id="10061046503" x="4217.79" y="5176.96" type="dead_end"/>
    <node id="10061046504" x="4221.59" y="5176.38" type="priority"/>
    <node id="10061046505" x="4264.37" y="5197.79" type="dead_end"/>
    <node id="10061046507" x="4272.75" y="5195.55" type="dead_end"/>
    <node id="10061046512" x="4254.02" y="5151.08" type="dead_end"/>
    <node id="10061047525" x="4249.06" y="5161.08" type="priority"/>
    <node id="10061047526" x="4252.83" y="5160.38" type="dead_end"/>
    <node id="10061047527" x="4252.61" y="5159.03" type="dead_end"/>
    <node id="10061047528" x="4251.75" y="5153.89" type="dead_end"/>
    <node id="10061047529" x="4255.60" y="5149.12" type="dead_end"/>
    <node id="10061047539" x="4142.62" y="5165.68" type="dead_end"/>
    <node id="10062374989" x="4929.56" y="2577.09" type="priority"/>
    <node id="10062374996" x="4957.16" y="2565.16" type="right_before_left"/>
    <node id="10062374999" x="5002.83" y="2552.24" type="priority"/>
    <node id="10062375002" x="5057.97" y="2536.59" type="priority"/>
    <node id="10062390842" x="5319.39" y="2537.17" type="priority" fringe="inner">
        <param key="buffer_stop" value="true"/>
    </node>
    <node id="10062390843" x="5313.32" y="2546.10" type="priority" fringe="inner">
        <param key="buffer_stop" value="true"/>
    </node>
    <node id="10062390844" x="5317.04" y="2540.61" type="right_before_left"/>
    <node id="10062390850" x="5260.15" y="2528.35" type="right_before_left"/>
    <node id="10062390906" x="5174.77" y="2504.47" type="right_before_left"/>
    <node id="10062390915" x="5239.43" y="2599.83" type="dead_end"/>
    <node id="10062390921" x="5247.29" y="2602.22" type="priority"/>
    <node id="10062392508" x="5194.60" y="2671.77" type="priority"/>
    <node id="10062392513" x="5199.10" y="2651.64" type="priority"/>
    <node id="10083557012" x="6401.82" y="3676.08" type="right_before_left"/>
    <node id="10083594218" x="6672.00" y="3745.06" type="right_before_left"/>
    <node id="10083594222" x="6692.07" y="3769.75" type="right_before_left"/>
    <node id="10083594225" x="6741.41" y="3770.05" type="right_before_left"/>
    <node id="10083594227" x="6725.58" y="3799.00" type="right_before_left"/>
    <node id="10083594228" x="6738.85" y="3850.16" type="right_before_left"/>
    <node id="10083594231" x="6731.98" y="3811.51" type="right_before_left"/>
    <node id="10083594237" x="6795.49" y="3751.24" type="right_before_left"/>
    <node id="10083594238" x="6808.46" y="3759.49" type="right_before_left"/>
    <node id="10083594239" x="6832.89" y="3768.99" type="right_before_left"/>
    <node id="10083594240" x="6848.87" y="3702.67" type="right_before_left"/>
    <node id="10083594247" x="6775.78" y="3773.79" type="right_before_left"/>
    <node id="10083594250" x="6817.28" y="3808.23" type="right_before_left"/>
    <node id="10083594251" x="6831.52" y="3817.71" type="right_before_left"/>
    <node id="10083594257" x="6903.08" y="3811.83" type="right_before_left"/>
    <node id="10083594263" x="6769.81" y="3514.21" type="right_before_left"/>
    <node id="10083594274" x="6504.78" y="3660.03" type="right_before_left"/>
    <node id="10083594279" x="6358.03" y="3671.50" type="right_before_left"/>
    <node id="10083594282" x="7108.68" y="3363.80" type="right_before_left"/>
    <node id="10083594284" x="7152.75" y="3383.31" type="right_before_left"/>
    <node id="10083594297" x="6960.78" y="3691.21" type="priority"/>
    <node id="10083594299" x="6913.19" y="3491.90" type="right_before_left"/>
    <node id="10083594307" x="7007.53" y="3659.02" type="right_before_left"/>
    <node id="10083594327" x="6745.98" y="3050.34" type="right_before_left"/>
    <node id="10083594331" x="6637.94" y="2976.27" type="right_before_left"/>
    <node id="10083594332" x="7139.30" y="3350.87" type="right_before_left"/>
    <node id="10083594334" x="6369.26" y="3174.85" type="right_before_left"/>
    <node id="10083594345" x="6620.57" y="3305.11" type="right_before_left"/>
    <node id="10083594348" x="6515.84" y="3448.00" type="right_before_left"/>
    <node id="10083594350" x="6665.98" y="3493.36" type="right_before_left"/>
    <node id="10083594351" x="6548.84" y="3352.97" type="right_before_left"/>
    <node id="10083594354" x="6541.33" y="3267.57" type="right_before_left"/>
    <node id="10083594361" x="6079.63" y="3469.61" type="right_before_left"/>
    <node id="10083594362" x="5719.83" y="3805.19" type="right_before_left"/>
    <node id="10083594364" x="5764.47" y="3803.99" type="right_before_left"/>
    <node id="10083594371" x="5287.14" y="4176.67" type="right_before_left"/>
    <node id="10083594373" x="5243.45" y="4220.16" type="right_before_left"/>
    <node id="10083594374" x="5164.97" y="3716.55" type="right_before_left"/>
    <node id="10083594376" x="5477.73" y="3547.34" type="right_before_left"/>
    <node id="10083594381" x="5506.45" y="3534.77" type="priority"/>
    <node id="10083594383" x="5530.70" y="3519.61" type="right_before_left"/>
    <node id="10083594384" x="5534.76" y="3531.69" type="right_before_left"/>
    <node id="10083594386" x="5513.58" y="3530.37" type="right_before_left"/>
    <node id="10085735231" x="6669.56" y="3703.01" type="right_before_left"/>
    <node id="10085735232" x="3956.72" y="4674.12" type="right_before_left"/>
    <node id="10085735238" x="3964.96" y="4628.88" type="priority"/>
    <node id="10094981611" x="5676.92" y="5135.53" type="priority"/>
    <node id="10095000364" x="5672.84" y="5201.98" type="dead_end"/>
    <node id="10095000367" x="5672.50" y="5225.50" type="dead_end"/>
    <node id="10095000369" x="5674.09" y="5238.25" type="dead_end"/>
    <node id="10095000372" x="5677.79" y="5190.26" type="right_before_left"/>
    <node id="10095000373" x="5669.30" y="5215.51" type="dead_end"/>
    <node id="10095004719" x="6337.46" y="5136.24" type="priority"/>
    <node id="10095004721" x="6105.11" y="5163.81" type="priority"/>
    <node id="10095004724" x="6106.01" y="5172.37" type="priority"/>
    <node id="10095004728" x="6119.46" y="5137.03" type="right_before_left"/>
    <node id="10095004730" x="6118.18" y="5101.12" type="priority"/>
    <node id="10095004737" x="6218.17" y="5029.64" type="priority"/>
    <node id="10095617119" x="8134.76" y="5086.89" type="dead_end"/>
    <node id="10095617124" x="8137.06" y="5167.32" type="priority"/>
    <node id="10101370479" x="4158.05" y="5105.79" type="dead_end"/>
    <node id="10101370481" x="4169.04" y="5161.33" type="dead_end"/>
    <node id="10101370482" x="4169.92" y="5167.49" type="dead_end"/>
    <node id="10101370485" x="4179.43" y="5211.65" type="dead_end"/>
    <node id="10101370486" x="4183.99" y="5237.76" type="dead_end"/>
    <node id="10101370487" x="4187.78" y="5254.22" type="dead_end"/>
    <node id="10103420686" x="5979.86" y="4892.12" type="right_before_left"/>
    <node id="10103420687" x="6093.35" y="4843.85" type="priority"/>
    <node id="10103429444" x="4314.13" y="5752.77" type="right_before_left"/>
    <node id="10103429446" x="4330.43" y="5776.52" type="priority"/>
    <node id="10108231070" x="8534.65" y="2883.55" type="priority"/>
    <node id="10108231071" x="8561.77" y="2882.62" type="priority"/>
    <node id="10109110005" x="6192.16" y="1605.95" type="priority"/>
    <node id="10109110008" x="6260.16" y="1603.03" type="priority"/>
    <node id="10111120411" x="7188.87" y="5239.43" type="priority"/>
    <node id="10111120414" x="7156.00" y="5179.47" type="right_before_left"/>
    <node id="10111527278" x="4745.65" y="1738.52" type="right_before_left"/>
    <node id="10111527279" x="4733.52" y="1780.90" type="right_before_left"/>
    <node id="10111527280" x="4745.82" y="1798.51" type="right_before_left"/>
    <node id="10111527281" x="4761.00" y="1749.10" type="right_before_left"/>
    <node id="10111527282" x="4756.98" y="1814.98" type="right_before_left"/>
    <node id="10111527283" x="4776.18" y="1753.75" type="right_before_left"/>
    <node id="10111527294" x="4917.76" y="1822.60" type="priority"/>
    <node id="10111527295" x="4946.02" y="1827.63" type="right_before_left"/>
    <node id="10111527301" x="4894.15" y="1894.24" type="priority"/>
    <node id="10111527302" x="4932.97" y="1825.31" type="right_before_left"/>
    <node id="10111527303" x="4911.92" y="1895.30" type="right_before_left"/>
    <node id="10116201114" x="5392.06" y="4767.31" type="right_before_left"/>
    <node id="10116210825" x="5616.28" y="4787.18" type="priority"/>
    <node id="10116210828" x="5599.31" y="4785.02" type="priority"/>
    <node id="10160313820" x="5755.74" y="3225.04" type="right_before_left"/>
    <node id="10160313825" x="5869.30" y="3332.84" type="right_before_left"/>
    <node id="10165913590" x="6568.16" y="2304.93" type="priority"/>
    <node id="10165999585" x="5059.21" y="3399.56" type="priority"/>
    <node id="10165999592" x="5093.39" y="3478.14" type="right_before_left"/>
    <node id="10165999599" x="7714.28" y="2607.71" type="right_before_left"/>
    <node id="10165999600" x="7819.52" y="2288.90" type="right_before_left"/>
    <node id="10165999607" x="8411.96" y="2599.53" type="right_before_left"/>
    <node id="10219254625" x="4435.19" y="2536.58" type="priority"/>
    <node id="10219254626" x="4405.59" y="2564.79" type="priority"/>
    <node id="10219254628" x="4333.75" y="2535.00" type="priority"/>
    <node id="10219254629" x="4333.04" y="2480.62" type="priority"/>
    <node id="10219254634" x="4186.21" y="2538.20" type="priority"/>
    <node id="10219254640" x="4170.59" y="2475.73" type="priority"/>
    <node id="10219254659" x="4440.93" y="2550.49" type="priority"/>
    <node id="10219254661" x="4418.14" y="2549.64" type="dead_end"/>
    <node id="10219254662" x="4434.80" y="2542.95" type="dead_end"/>
    <node id="10219254664" x="4598.43" y="2546.24" type="priority"/>
    <node id="10219254666" x="4610.12" y="2553.39" type="priority"/>
    <node id="10219254667" x="4377.44" y="2531.44" type="priority"/>
    <node id="10219254668" x="4376.95" y="2540.43" type="dead_end"/>
    <node id="10219254677" x="4399.62" y="2564.71" type="dead_end"/>
    <node id="10219254698" x="4214.04" y="2552.78" type="dead_end"/>
    <node id="10219254700" x="4212.86" y="2543.63" type="dead_end"/>
    <node id="10219254714" x="4190.36" y="2579.93" type="dead_end"/>
    <node id="10219254720" x="4230.99" y="2836.40" type="priority"/>
    <node id="10219254721" x="4226.67" y="2870.53" type="dead_end"/>
    <node id="10219254724" x="4179.09" y="2579.87" type="dead_end"/>
    <node id="10219254734" x="4249.00" y="2921.91" type="dead_end"/>
    <node id="10219254735" x="4282.85" y="3083.33" type="dead_end"/>
    <node id="10219254737" x="4237.53" y="2923.65" type="dead_end"/>
    <node id="10219254738" x="4243.67" y="2922.72" type="priority"/>
    <node id="10219254757" x="4219.45" y="2907.82" type="priority"/>
    <node id="10219254771" x="4164.40" y="2560.88" type="dead_end"/>
    <node id="10219254775" x="4040.68" y="2585.96" type="priority"/>
    <node id="10219254779" x="4162.71" y="2550.90" type="dead_end"/>
    <node id="10219254781" x="4454.59" y="2903.68" type="priority"/>
    <node id="10219254782" x="4454.39" y="2909.45" type="priority"/>
    <node id="10219254783" x="4454.73" y="2894.24" type="right_before_left"/>
    <node id="10267815020" x="4867.44" y="5206.33" type="priority"/>
    <node id="10267815022" x="5169.54" y="5095.19" type="priority"/>
    <node id="10272826451" x="5957.61" y="3094.53" type="right_before_left"/>
    <node id="10599354816" x="4800.60" y="5210.90" type="priority"/>
    <node id="10599354818" x="5044.65" y="5143.92" type="traffic_light" tl="10599354818"/>
    <node id="10599354820" x="5142.18" y="5113.89" type="priority"/>
    <node id="10599354821" x="5173.33" y="5087.45" type="priority"/>
    <node id="10599354822" x="5175.82" y="5083.47" type="right_before_left"/>
    <node id="10599354830" x="5706.72" y="4890.16" type="priority"/>
    <node id="10599354836" x="5835.41" y="5598.84" type="priority"/>
    <node id="10599354837" x="5840.82" y="5613.05" type="priority"/>
    <node id="10599354839" x="5891.61" y="5741.53" type="priority"/>
    <node id="10601922629" x="5979.97" y="5971.37" type="priority"/>
    <node id="10601922630" x="5983.25" y="5980.35" type="priority"/>
    <node id="10601922632" x="6009.02" y="6077.14" type="priority"/>
    <node id="10739561202" x="4826.82" y="2350.24" type="priority"/>
    <node id="10739561203" x="4828.97" y="2371.99" type="priority"/>
    <node id="10739561204" x="4824.26" y="2386.39" type="priority"/>
    <node id="10739597607" x="4811.73" y="2396.54" type="priority"/>
    <node id="10739597610" x="4786.21" y="2395.89" type="priority"/>
    <node id="10739597615" x="4943.50" y="2449.53" type="priority"/>
    <node id="10739616011" x="4946.39" y="2359.68" type="priority"/>
    <node id="10739616019" x="5127.98" y="2347.92" type="priority"/>
    <node id="10739616026" x="5140.84" y="2280.12" type="priority"/>
    <node id="10739616028" x="4957.68" y="2205.84" type="priority"/>
    <node id="10740798120" x="5169.33" y="4564.51" type="priority"/>
    <node id="10740798121" x="5167.64" y="4589.04" type="priority"/>
    <node id="10740798122" x="5161.48" y="4582.23" type="priority"/>
    <node id="10740798123" x="5150.96" y="4604.30" type="priority"/>
    <node id="10740798124" x="5214.80" y="4594.86" type="priority"/>
    <node id="10740798125" x="5086.18" y="4588.68" type="right_before_left"/>
    <node id="10740798127" x="5047.50" y="4580.56" type="priority"/>
    <node id="10740798128" x="5053.50" y="4582.01" type="priority"/>
    <node id="10740798129" x="5139.82" y="4699.08" type="priority"/>
    <node id="10740798130" x="5111.03" y="4674.59" type="right_before_left"/>
    <node id="10740798131" x="5121.49" y="4593.16" type="right_before_left"/>
    <node id="10740798132" x="5124.92" y="4686.41" type="right_before_left"/>
    <node id="10740798133" x="5136.58" y="4595.18" type="right_before_left"/>
    <node id="10740798135" x="5095.84" y="4671.32" type="right_before_left"/>
    <node id="10740798136" x="5105.68" y="4591.05" type="right_before_left"/>
    <node id="10740798139" x="5144.09" y="4596.18" type="right_before_left"/>
    <node id="10740798140" x="5089.91" y="4589.13" type="right_before_left"/>
    <node id="10740798142" x="5104.77" y="4598.25" type="priority"/>
    <node id="10740798143" x="5120.53" y="4600.39" type="priority"/>
    <node id="10740798144" x="5135.63" y="4602.43" type="priority"/>
    <node id="10740798145" x="5143.49" y="4667.84" type="priority"/>
    <node id="10740798146" x="5211.14" y="4675.54" type="priority"/>
    <node id="10740798147" x="5175.47" y="4589.90" type="priority"/>
    <node id="10740798148" x="5188.20" y="4490.62" type="priority"/>
    <node id="10740798149" x="5176.01" y="4586.34" type="priority"/>
    <node id="10740798150" x="5134.36" y="4694.43" type="priority"/>
    <node id="10740798151" x="5039.25" y="4830.54" type="priority"/>
    <node id="10741053285" x="5349.30" y="5016.15" type="traffic_light" tl="10741053285"/>
    <node id="10741053286" x="5369.58" y="5014.24" type="priority"/>
    <node id="10741053287" x="5367.42" y="5010.13" type="right_before_left"/>
    <node id="10741053292" x="5363.38" y="4969.94" type="right_before_left"/>
    <node id="10741053298" x="5249.59" y="4900.87" type="priority"/>
    <node id="10741053299" x="5366.26" y="5007.76" type="traffic_light" tl="10741053299"/>
    <node id="10741053300" x="5408.46" y="4989.57" type="priority"/>
    <node id="10741053303" x="5149.48" y="4871.36" type="priority"/>
    <node id="10741060497" x="5553.67" y="5262.72" type="priority"/>
    <node id="10741060498" x="5540.38" y="5263.91" type="right_before_left"/>
    <node id="10741060499" x="5523.29" y="5266.67" type="priority"/>
    <node id="10741065291" x="5171.48" y="5228.35" type="priority"/>
    <node id="10741065292" x="5166.23" y="5216.36" type="right_before_left"/>
    <node id="10741065298" x="5166.36" y="5200.16" type="right_before_left"/>
    <node id="10741066122" x="5288.77" y="5078.85" type="priority"/>
    <node id="10741066125" x="5132.73" y="5113.73" type="priority"/>
    <node id="10741066126" x="5255.00" y="5065.40" type="priority"/>
    <node id="10741067005" x="5170.90" y="4872.54" type="dead_end"/>
    <node id="10741067006" x="5189.63" y="4879.65" type="dead_end"/>
    <node id="10741067011" x="5145.89" y="4893.46" type="priority"/>
    <node id="10741099175" x="5622.88" y="4793.82" type="priority"/>
    <node id="10741099204" x="5486.93" y="4848.38" type="priority"/>
    <node id="10741103353" x="6615.64" y="5215.24" type="right_before_left"/>
    <node id="10741103354" x="6600.46" y="5216.19" type="priority"/>
    <node id="10741103355" x="6634.07" y="5222.27" type="right_before_left"/>
    <node id="10741103356" x="6680.61" y="5219.87" type="priority"/>
    <node id="10741112805" x="5489.49" y="4844.61" type="priority"/>
    <node id="10741119755" x="6682.08" y="5145.37" type="priority"/>
    <node id="10758448659" x="4716.21" y="6767.56" type="right_before_left"/>
    <node id="10775235900" x="4947.09" y="6110.12" type="priority"/>
    <node id="10775235901" x="4887.10" y="6133.81" type="priority"/>
    <node id="10775235902" x="4892.87" y="6131.53" type="priority"/>
    <node id="10775235903" x="4885.85" y="6111.30" type="priority"/>
    <node id="10775235904" x="4943.91" y="6101.35" type="priority"/>
    <node id="10775288605" x="4942.85" y="6111.79" type="priority"/>
    <node id="10801371905" x="8986.14" y="3968.46" type="right_before_left"/>
    <node id="10801371909" x="9014.94" y="4014.56" type="priority"/>
    <node id="10801371913" x="8980.78" y="3911.72" type="priority"/>
    <node id="10801371914" x="9014.26" y="3887.24" type="priority"/>
    <node id="10801371949" x="9205.28" y="3923.21" type="priority"/>
    <node id="10801628296" x="7372.07" y="5275.60" type="right_before_left"/>
    <node id="10801901056" x="7367.32" y="5285.73" type="priority"/>
    <node id="10801901059" x="7382.95" y="5291.00" type="right_before_left"/>
    <node id="10801901060" x="7380.51" y="5338.44" type="right_before_left"/>
    <node id="10801901061" x="7369.48" y="5337.96" type="right_before_left"/>
    <node id="10801901062" x="7364.91" y="5337.71" type="priority"/>
    <node id="10842582900" x="6906.13" y="5461.69" type="priority"/>
    <node id="10915585980" x="6363.86" y="5117.96" type="priority"/>
    <node id="10915585985" x="6459.54" y="5110.78" type="right_before_left"/>
    <node id="10958254433" x="8137.65" y="5209.71" type="right_before_left"/>
    <node id="10963900913" x="4967.69" y="5655.66" type="dead_end"/>
    <node id="10963900914" x="4936.65" y="5667.88" type="priority"/>
    <node id="10985246349" x="9733.53" y="1345.14" type="priority"/>
    <node id="10985246365" x="8569.97" y="1106.24" type="priority"/>
    <node id="10985246368" x="8567.67" y="1052.18" type="priority"/>
    <node id="10985246369" x="8578.09" y="1103.79" type="priority"/>
    <node id="10985246370" x="8514.74" y="1116.90" type="priority"/>
    <node id="11006082040" x="8588.18" y="5964.08" type="priority"/>
    <node id="11006082046" x="8627.42" y="6003.21" type="priority"/>
    <node id="11051463867" x="4324.55" y="5806.73" type="priority"/>
    <node id="11051463868" x="4318.03" y="5805.25" type="priority"/>
    <node id="11051463877" x="4347.70" y="5811.72" type="right_before_left"/>
    <node id="11066547366" x="6371.44" y="5121.09" type="dead_end"/>
    <node id="11152399028" x="5110.70" y="3810.04" type="right_before_left"/>
    <node id="11152399046" x="5208.04" y="3727.92" type="right_before_left"/>
    <node id="11152399047" x="5202.77" y="3726.39" type="right_before_left"/>
    <node id="11152399064" x="5312.46" y="3686.63" type="priority"/>
    <node id="11152399070" x="5272.19" y="3684.78" type="right_before_left"/>
    <node id="11152399071" x="5244.77" y="3693.90" type="right_before_left"/>
    <node id="11152399075" x="5209.74" y="3679.83" type="right_before_left"/>
    <node id="11152421877" x="5928.90" y="3667.93" type="priority"/>
    <node id="11152421882" x="6326.70" y="3178.24" type="right_before_left"/>
    <node id="11152421885" x="6358.35" y="3211.09" type="right_before_left"/>
    <node id="11152421892" x="6452.61" y="3183.66" type="right_before_left"/>
    <node id="11182683714" x="4909.22" y="1848.53" type="priority"/>
    <node id="11288656130" x="4476.62" y="6109.14" type="right_before_left"/>
    <node id="11288656131" x="4381.60" y="6130.92" type="right_before_left"/>
    <node id="11288656132" x="4469.10" y="6078.65" type="right_before_left"/>
    <node id="11288656133" x="4378.90" y="6100.58" type="right_before_left"/>
    <node id="11288656134" x="4376.10" y="6067.80" type="right_before_left"/>
    <node id="11288656135" x="4461.37" y="6047.27" type="right_before_left"/>
    <node id="11288656136" x="4457.07" y="6029.85" type="right_before_left"/>
    <node id="11288656137" x="4374.10" y="6045.48" type="right_before_left"/>
    <node id="11288656140" x="4381.24" y="5954.69" type="right_before_left"/>
    <node id="11288656148" x="4424.96" y="5934.31" type="priority"/>
    <node id="11288656161" x="4385.73" y="5923.93" type="right_before_left"/>
    <node id="11288656163" x="4380.37" y="5898.01" type="right_before_left"/>
    <node id="11288656164" x="4363.85" y="5927.77" type="right_before_left"/>
    <node id="11288660371" x="4365.21" y="5945.13" type="right_before_left"/>
    <node id="11288660372" x="4348.07" y="5946.87" type="priority"/>
    <node id="11288660374" x="4373.94" y="5944.27" type="right_before_left"/>
    <node id="11288660378" x="4415.93" y="5992.07" type="right_before_left"/>
    <node id="11288660382" x="4436.45" y="5996.34" type="right_before_left"/>
    <node id="11288660388" x="4480.36" y="6136.63" type="right_before_left"/>
    <node id="11288660389" x="4482.91" y="6145.75" type="priority"/>
    <node id="11288660397" x="4383.06" y="5750.02" type="priority"/>
    <node id="11288660398" x="4365.98" y="5758.02" type="priority"/>
    <node id="11288665725" x="5940.71" y="6050.03" type="right_before_left"/>
    <node id="11288665726" x="5936.92" y="6029.55" type="right_before_left"/>
    <node id="11288665732" x="5599.47" y="5999.11" type="right_before_left"/>
    <node id="11288665740" x="5670.36" y="5986.64" type="right_before_left"/>
    <node id="11288665741" x="5687.13" y="5983.68" type="right_before_left"/>
    <node id="11288665742" x="5682.71" y="5962.37" type="priority" fringe="inner">
        <param key="buffer_stop" value="true"/>
    </node>
    <node id="11288665746" x="5762.29" y="6068.65" type="right_before_left"/>
    <node id="11288665747" x="5761.27" y="6063.38" type="right_before_left"/>
    <node id="11288665748" x="5753.14" y="6021.53" type="right_before_left"/>
    <node id="11288665749" x="5768.65" y="6101.43" type="right_before_left"/>
    <node id="11288665750" x="5718.27" y="6071.61" type="right_before_left"/>
    <node id="11288665751" x="5735.60" y="6068.30" type="right_before_left"/>
    <node id="11288665752" x="5752.08" y="6070.54" type="right_before_left"/>
    <node id="11288665753" x="5787.79" y="6063.95" type="right_before_left"/>
    <node id="11288665754" x="5786.72" y="6058.51" type="right_before_left"/>
    <node id="11288665755" x="5778.50" y="6016.44" type="right_before_left"/>
    <node id="11288665756" x="5794.21" y="6096.80" type="right_before_left"/>
    <node id="11288665757" x="5813.14" y="6059.27" type="right_before_left"/>
    <node id="11288665758" x="5812.06" y="6053.67" type="right_before_left"/>
    <node id="11288665759" x="5803.90" y="6011.33" type="right_before_left"/>
    <node id="11288665760" x="5818.82" y="6088.76" type="right_before_left"/>
    <node id="11288665761" x="5894.90" y="5969.45" type="right_before_left"/>
    <node id="11288665762" x="5889.98" y="5944.20" type="right_before_left"/>
    <node id="11288665763" x="5899.50" y="5993.06" type="right_before_left"/>
    <node id="11288665764" x="5793.82" y="5989.26" type="right_before_left"/>
    <node id="11288665765" x="5789.18" y="5963.79" type="right_before_left"/>
    <node id="11288665766" x="5784.49" y="5938.01" type="right_before_left"/>
    <node id="11288665767" x="5779.68" y="5911.63" type="priority"/>
    <node id="11288665768" x="5798.06" y="6012.51" type="right_before_left"/>
    <node id="11288689969" x="5763.46" y="5995.22" type="right_before_left"/>
    <node id="11288689970" x="5758.66" y="5969.79" type="right_before_left"/>
    <node id="11288689971" x="5753.77" y="5943.93" type="right_before_left"/>
    <node id="11288689972" x="5748.67" y="5916.95" type="priority"/>
    <node id="11288689973" x="5767.88" y="6018.56" type="right_before_left"/>
    <node id="11288689974" x="5732.84" y="6001.23" type="right_before_left"/>
    <node id="11288689975" x="5727.88" y="5975.84" type="right_before_left"/>
    <node id="11288689976" x="5722.81" y="5949.89" type="right_before_left"/>
    <node id="11288689977" x="5717.65" y="5923.47" type="priority"/>
    <node id="11288689978" x="5737.42" y="6024.69" type="right_before_left"/>
    <node id="11288689979" x="5828.27" y="5982.51" type="right_before_left"/>
    <node id="11288689980" x="5865.14" y="5975.28" type="right_before_left"/>
    <node id="11288689981" x="5712.86" y="6031.11" type="right_before_left"/>
    <node id="11288689983" x="5944.17" y="5959.79" type="right_before_left"/>
    <node id="11288689984" x="5855.31" y="5924.49" type="right_before_left"/>
    <node id="11288689985" x="5860.23" y="5949.95" type="right_before_left"/>
    <node id="11288689986" x="5869.69" y="5998.78" type="right_before_left"/>
    <node id="11288689987" x="5850.63" y="5900.37" type="priority"/>
    <node id="11288689988" x="5949.87" y="5983.38" type="right_before_left"/>
    <node id="11288689991" x="5938.88" y="5934.75" type="right_before_left"/>
    <node id="11288689992" x="5727.81" y="6026.61" type="right_before_left"/>
    <node id="11288689993" x="5651.16" y="6004.01" type="right_before_left"/>
    <node id="11288690005" x="5677.52" y="6040.07" type="right_before_left"/>
    <node id="11288690006" x="5705.69" y="6073.03" type="right_before_left"/>
    <node id="11288690013" x="5623.41" y="6047.60" type="right_before_left"/>
    <node id="11288690016" x="5598.93" y="5999.21" type="right_before_left"/>
    <node id="11288690019" x="5618.97" y="5995.68" type="right_before_left"/>
    <node id="11288690022" x="5638.71" y="6009.32" type="right_before_left"/>
    <node id="11288690025" x="5689.12" y="5987.26" type="right_before_left"/>
    <node id="11288690026" x="5688.36" y="5983.47" type="right_before_left"/>
    <node id="11288690027" x="5652.40" y="6048.06" type="right_before_left"/>
    <node id="11288690028" x="5645.10" y="6065.55" type="right_before_left"/>
    <node id="11288690031" x="5635.93" y="6068.24" type="right_before_left"/>
    <node id="11288690037" x="5645.87" y="6072.94" type="right_before_left"/>
    <node id="11288690045" x="5658.08" y="6043.26" type="right_before_left"/>