<?xml version="1.0" encoding="UTF-8"?>

<!-- generated on 2025-04-04 16:24:52 by Eclipse SUMO netconvert Version 1.19.0
<configuration xmlns:xsi="http://www.w3.org/2001/XMLSchema-instance" xsi:noNamespaceSchemaLocation="http://sumo.dlr.de/xsd/netconvertConfiguration.xsd">

    <input>
        <sumo-net-file value="la_verriere/la_verriere.net.xml"/>
    </input>

    <output>
        <plain-output-prefix value="la_verriere/la_verriere"/>
    </output>

    <processing>
        <geometry.min-radius.fix.railways value="false"/>
        <geometry.max-grade.fix value="false"/>
        <offset.disable-normalization value="true"/>
        <lefthand value="0"/>
    </processing>

    <tls_building>
        <tls.ignore-internal-junction-jam value="1"/>
    </tls_building>

    <junctions>
        <no-turnarounds value="true"/>
        <junctions.corner-detail value="5"/>
        <junctions.limit-turn-speed value="5.50"/>
        <rectangular-lane-cut value="0"/>
    </junctions>

    <pedestrian>
        <walkingareas value="0"/>
    </pedestrian>

</configuration>
-->

<tlLogics version="1.16" xmlns:xsi="http://www.w3.org/2001/XMLSchema-instance" xsi:noNamespaceSchemaLocation="http://sumo.dlr.de/xsd/tllogic_file.xsd">
    <tlLogic id="10143030476" type="static" programID="0" offset="0">
        <phase duration="82" state="GgGg"/>
        <phase duration="3"  state="yyyy"/>
        <phase duration="5"  state="rrrr"/>
    </tlLogic>
    <tlLogic id="10143030502" type="static" programID="0" offset="0">
        <phase duration="82" state="G"/>
        <phase duration="3"  state="y"/>
        <phase duration="5"  state="r"/>
    </tlLogic>
    <tlLogic id="11032090236" type="static" programID="0" offset="0">
        <phase duration="40" state="GGgrrrrGgg"/>
        <phase duration="5"  state="yyyrrrryyy"/>
        <phase duration="40" state="rrrGGGGrrr"/>
        <phase duration="5"  state="rrryyyyrrr"/>
    </tlLogic>
    <tlLogic id="11708869872" type="static" programID="0" offset="0">
        <phase duration="80" state="GG"/>
        <phase duration="5"  state="yy"/>
        <phase duration="5"  state="rr"/>
    </tlLogic>
    <tlLogic id="1256316901" type="static" programID="0" offset="0">
        <phase duration="82" state="GG"/>
        <phase duration="3"  state="yy"/>
        <phase duration="5"  state="rr"/>
    </tlLogic>
    <tlLogic id="1256316937" type="static" programID="0" offset="0">
        <phase duration="80" state="GG"/>
        <phase duration="5"  state="yy"/>
        <phase duration="5"  state="rr"/>
    </tlLogic>
    <tlLogic id="2283167978" type="static" programID="0" offset="0">
        <phase duration="80" state="G"/>
        <phase duration="5"  state="y"/>
        <phase duration="5"  state="r"/>
    </tlLogic>
    <tlLogic id="2283167995" type="static" programID="0" offset="0">
        <phase duration="80" state="G"/>
        <phase duration="5"  state="y"/>
        <phase duration="5"  state="r"/>
    </tlLogic>
    <tlLogic id="241138858" type="static" programID="0" offset="0">
        <phase duration="40" state="GGGrrr"/>
        <phase duration="5"  state="yyyrrr"/>
        <phase duration="40" state="rrrGGG"/>
        <phase duration="5"  state="rrryyy"/>
    </tlLogic>
    <tlLogic id="250928117" type="static" programID="0" offset="0">
        <phase duration="80" state="GG"/>
        <phase duration="5"  state="yy"/>
        <phase duration="5"  state="rr"/>
    </tlLogic>
    <tlLogic id="313261257" type="static" programID="0" offset="0">
        <phase duration="27" state="rrrGggrrrGGg"/>
        <phase duration="3"  state="rrryyyrrryyy"/>
        <phase duration="27" state="GGGrrrrrrrrr"/>
        <phase duration="3"  state="yyyrrrrrrrrr"/>
        <phase duration="27" state="rrrrrrGGgGrr"/>
        <phase duration="3"  state="rrrrrryyyyrr"/>
    </tlLogic>
    <tlLogic id="313792471" type="static" programID="0" offset="0">
        <phase duration="25" state="rrrrGGggrrrrGGggrrrr"/>
        <phase duration="5"  state="rrrryyyyrrrryyyyrrrr"/>
        <phase duration="25" state="rrrrrrrrGGggrrrrGGgg"/>
        <phase duration="5"  state="rrrrrrrryyyyrrrryyyy"/>
        <phase duration="25" state="GGGGrrrrrrrrrrrrrrrr"/>
        <phase duration="5"  state="yyyyrrrrrrrrrrrrrrrr"/>
    </tlLogic>
    <tlLogic id="332488370" type="static" programID="0" offset="0">
        <phase duration="42" state="GGrr"/>
        <phase duration="3"  state="yyrr"/>
        <phase duration="42" state="rrGG"/>
        <phase duration="3"  state="rryy"/>
    </tlLogic>
    <tlLogic id="361407998" type="static" programID="0" offset="0">
        <phase duration="39" state="GGrr"/>
        <phase duration="6"  state="yyrr"/>
        <phase duration="39" state="rrGG"/>
        <phase duration="6"  state="rryy"/>
    </tlLogic>
    <tlLogic id="361411552" type="static" programID="0" offset="0">
        <phase duration="39" state="rrrrGGgrrrrGGgg"/>
        <phase duration="6"  state="rrrryyyrrrryyyy"/>
        <phase duration="39" state="ggggrrrGGGgrrrr"/>
        <phase duration="6"  state="yyyyrrryyyyrrrr"/>
    </tlLogic>
    <tlLogic id="475408061" type="static" programID="0" offset="0">
        <phase duration="80" state="GGG"/>
        <phase duration="5"  state="yyy"/>
        <phase duration="5"  state="rrr"/>
    </tlLogic>
    <tlLogic id="5157285138" type="static" programID="0" offset="0">
        <phase duration="80" state="G"/>
        <phase duration="5"  state="y"/>
        <phase duration="5"  state="r"/>
    </tlLogic>
    <tlLogic id="5157285149" type="static" programID="0" offset="0">
        <phase duration="79" state="G"/>
        <phase duration="6"  state="y"/>
        <phase duration="5"  state="r"/>
    </tlLogic>
    <tlLogic id="5489185330" type="static" programID="0" offset="0">
        <phase duration="82" state="GgGg"/>
        <phase duration="3"  state="yyyy"/>
        <phase duration="5"  state="rrrr"/>
    </tlLogic>
    <tlLogic id="570988077" type="static" programID="0" offset="0">
        <phase duration="42" state="rrrGgGG"/>
        <phase duration="3"  state="rrryyyy"/>
        <phase duration="42" state="GGGrrrr"/>
        <phase duration="3"  state="yyyrrrr"/>
    </tlLogic>
    <tlLogic id="571066137" type="static" programID="0" offset="0">
        <phase duration="40" state="rrrrGGggrrrrGGgg"/>
        <phase duration="5"  state="rrrryyyyrrrryyyy"/>
        <phase duration="40" state="GGggrrrrGGggrrrr"/>
        <phase duration="5"  state="yyyyrrrryyyyrrrr"/>
    </tlLogic>
    <tlLogic id="576717563" type="static" programID="0" offset="0">
        <phase duration="80" state="G"/>
        <phase duration="5"  state="y"/>
        <phase duration="5"  state="r"/>
    </tlLogic>
    <tlLogic id="576717980" type="static" programID="0" offset="0">
        <phase duration="80" state="G"/>
        <phase duration="5"  state="y"/>
        <phase duration="5"  state="r"/>
    </tlLogic>
    <tlLogic id="960866498" type="static" programID="0" offset="0">
        <phase duration="82" state="GgGg"/>
        <phase duration="3"  state="yyyy"/>
        <phase duration="5"  state="rrrr"/>
    </tlLogic>
    <tlLogic id="GS_cluster_105459998_1255234549_1256317126_242574559_#1more" type="static" programID="0" offset="0">
        <phase duration="20" state="ggGGGGrrrrrrrrGGrrr"/>
        <phase duration="5"  state="ggyyyyrrrrrrrryyrrr"/>
        <phase duration="6"  state="ggrrrrrrrrrrrrrrGGG"/>
        <phase duration="5"  state="yyrrrrrrrrrrrrrryyy"/>
        <phase duration="22" state="rrrrrrGGGGrrrrrrrrr"/>
        <phase duration="5"  state="rrrrrryyyyrrrrrrrrr"/>
        <phase duration="22" state="rrrrrrrrrrGGGGrrrrr"/>
        <phase duration="5"  state="rrrrrrrrrryyyyrrrrr"/>
    </tlLogic>
    <tlLogic id="cluster_10838097627_10838097654_12098584629_241770957" type="static" programID="0" offset="0">
        <phase duration="25" state="rrrrGGgGggrrrGrrrrrr"/>
        <phase duration="3"  state="rrrryyyyyyrrryrrrrrr"/>
        <phase duration="27" state="gGGgrrrrrrrrrrGggGGG"/>
        <phase duration="3"  state="yyyyrrrrrrrrrryyyyyy"/>
        <phase duration="1"  state="rrrrrrrrrrrrrrrrrrrr"/>
        <phase duration="27" state="rrrrrrrrrrGGGGrrrrrr"/>
        <phase duration="3"  state="rrrrrrrrrryyyyrrrrrr"/>
        <phase duration="1"  state="rrrrrrrrrrrrrrrrrrrr"/>
    </tlLogic>
    <tlLogic id="cluster_11584482913_1256317134_258926295_6517961627_#1more" type="static" programID="0" offset="0">
        <phase duration="16" state="rrrrrrrrrrrrrrrrGGGGGGGrrrrrggg"/>
        <phase duration="5"  state="rrrrrrrrrrrrrrrryyyyyyyrrrrryyy"/>
        <phase duration="18" state="gggrrrrrGGGGGGGgGrrrrrrrrrrrrrr"/>
        <phase duration="5"  state="yyyrrrrryyyyyyyyyrrrrrrrrrrrrrr"/>
        <phase duration="18" state="rrrrrrrrrrrrrrGgGrrrrrrGGGGGrrr"/>
        <phase duration="5"  state="rrrrrrrrrrrrrryyyrrrrrryyyyyrrr"/>
        <phase duration="18" state="rrrGGGGgGrrrrrGgGrrrrrrrrrrrrrr"/>
        <phase duration="5"  state="rrryyyyyyrrrrryyyrrrrrrrrrrrrrr"/>
    </tlLogic>
    <tlLogic id="cluster_11955063522_1255234710_2376793627_576506376" type="static" programID="0" offset="0">
        <phase duration="27" state="rrrgggGgrrrrrgggggGGgGgg"/>
        <phase duration="3"  state="rrryyyyyrrrrryyyyyyyyyyy"/>
        <phase duration="27" state="rrrrrrrrGGGGGrrrrrrrrrrr"/>
        <phase duration="3"  state="rrrrrrrryyyyyrrrrrrrrrrr"/>
        <phase duration="27" state="GGgGrrGGrrrrrrrrrrrrrrrr"/>
        <phase duration="3"  state="yyyyrryyrrrrrrrrrrrrrrrr"/>
    </tlLogic>
    <tlLogic id="cluster_12009744275_5113007735_5156746302_571113930_#1more" type="static" programID="0" offset="0">
        <phase duration="27" state="GGgggrrrrrGGGggrrrrrrrrrrr"/>
        <phase duration="3"  state="yyyyyrrrrryyyyyrrrrrrrrrrr"/>
        <phase duration="27" state="rrrrrggGggrrrrrGGgggrrrrrr"/>
        <phase duration="3"  state="rrrrryyyyyrrrrryyyyyrrrrrr"/>
        <phase duration="27" state="rrrrrrrrrrrrrrrrrrrrGGGGGG"/>
        <phase duration="3"  state="rrrrrrrrrrrrrrrrrrrryyyyyy"/>
    </tlLogic>
    <tlLogic id="cluster_12033650874_12033650877_12033650882" type="static" programID="0" offset="0">
        <phase duration="42" state="rrGGG"/>
        <phase duration="3"  state="rryyy"/>
        <phase duration="42" state="GgGrr"/>
        <phase duration="3"  state="yyyrr"/>
    </tlLogic>
    <tlLogic id="cluster_12033650876_12033650880_12033650881" type="static" programID="0" offset="0">
        <phase duration="42" state="rrGG"/>
        <phase duration="3"  state="rryy"/>
        <phase duration="42" state="GGrr"/>
        <phase duration="3"  state="yyrr"/>
    </tlLogic>
    <tlLogic id="cluster_1253161919_1253161953_1253161991_1253162098_#4more" type="static" programID="0" offset="0">
        <phase duration="20" state="GGGgGgggrrrrrrrrr"/>
        <phase duration="6"  state="yyyyygggrrrrrrrrr"/>
        <phase duration="6"  state="rrrrGGGGrrrrrrrrr"/>
        <phase duration="6"  state="rrrryyyyrrrrrrrrr"/>
        <phase duration="20" state="GrrrrrrrrrrrGGGGg"/>
        <phase duration="6"  state="yrrrrrrrrrrryyyyy"/>
        <phase duration="20" state="rrrrrrrrGGGGrrrrr"/>
        <phase duration="6"  state="rrrrrrrryyyyrrrrr"/>
    </tlLogic>
    <tlLogic id="cluster_1256316987_2266897443_796103879" type="static" programID="0" offset="0">
        <phase duration="27" state="ggggGGGGrrrrrrrr"/>
        <phase duration="3"  state="yyyyyyyyrrrrrrrr"/>
        <phase duration="27" state="rrrrrrrrGGGgGrrr"/>
        <phase duration="3"  state="rrrrrrrryyyyyrrr"/>
        <phase duration="27" state="GrrrrrrrrrrrGGGg"/>
        <phase duration="3"  state="yrrrrrrrrrrryyyy"/>
    </tlLogic>
    <tlLogic id="cluster_1800616846_7537825209_979885888" type="static" programID="0" offset="0">
        <phase duration="24" state="GGGGGgrrrrrrrrrrrrrrrrrrrrrrrrgggggg"/>
        <phase duration="6"  state="yyyyyyrrrrrrrrrrrrrrrrrrrrrrrryyyyyy"/>
        <phase duration="24" state="rrrrrrGGGgggrrrrrrrrrrrrGGGgggrrrrrr"/>
        <phase duration="6"  state="rrrrrryyyyyyrrrrrrrrrrrryyyyyyrrrrrr"/>
        <phase duration="24" state="rrrrrrrrrrrrGGGGGgGgggggrrrrrrrrrrrr"/>
        <phase duration="6"  state="rrrrrrrrrrrryyyyyyyyyyyyrrrrrrrrrrrr"/>
    </tlLogic>
    <tlLogic id="cluster_1879692554_1879692562_449139948_449139953_#1more" type="static" programID="0" offset="0">
        <phase duration="35" state="rGGGrrrrrrrrrrrrrrrGGGrrrgggggggggggg"/>
        <phase duration="5"  state="ryyyrrrrrrrrrrrrrrryyyrrrgggggggggggg"/>
        <phase duration="6"  state="grrrGGgrrrrrrrrrrrrrrrGGggggggggggggg"/>
        <phase duration="5"  state="yrrryyyrrrrrrrrrrrrrrryyyyyyyyyyyyyyy"/>
        <phase duration="34" state="rrrrrrrGGGGGgGgggggrrrrrrrrrrrrrrrrrr"/>
        <phase duration="5"  state="rrrrrrryyyyyyyyyyyyrrrrrrrrrrrrrrrrrr"/>
    </tlLogic>
    <tlLogic id="cluster_1939331486_313261295_315533117_315533118_#3more" type="static" programID="0" offset="0">
        <phase duration="19" state="GGGgggrrrrrrggggggGGGgggrrrrrrrrrrrrrrrrrr"/>
        <phase duration="3"  state="yyyyyyrrrrrryyyyyyyyyyyyrrrrrrrrrrrrrrrrrr"/>
        <phase duration="1"  state="rrrrrrrrrrrrrrrrrrrrrrrrrrrrrrrrrrrrrrrrrr"/>
        <phase duration="19" state="rrrrrrGGGgggrrrrrrrrrrrrGGGgggrrrrrrrrrrrr"/>
        <phase duration="3"  state="rrrrrryyyyyyrrrrrrrrrrrryyyyyyrrrrrrrrrrrr"/>
        <phase duration="1"  state="rrrrrrrrrrrrrrrrrrrrrrrrrrrrrrrrrrrrrrrrrr"/>
        <phase duration="19" state="GrrrrrrrrrrrrrrrrrrrrrrrrrrrrrrrrrrrGGGGGg"/>
        <phase duration="3"  state="yrrrrrrrrrrrrrrrrrrrrrrrrrrrrrrrrrrryyyyyy"/>
        <phase duration="19" state="rrrrrrrrrrrrrrrrrrrrrrrrrrrrrrGGGGGGrrrrrr"/>
        <phase duration="3"  state="rrrrrrrrrrrrrrrrrrrrrrrrrrrrrryyyyyyrrrrrr"/>
    </tlLogic>
    <tlLogic id="cluster_210562318_475408069_5157284532" type="static" programID="0" offset="0">
        <phase duration="39" state="rrGG"/>
        <phase duration="6"  state="rryy"/>
        <phase duration="39" state="GGrr"/>
        <phase duration="6"  state="yyrr"/>
    </tlLogic>
    <tlLogic id="cluster_210564331_5157285272_5157285510" type="static" programID="0" offset="0">
        <phase duration="39" state="rrrGGG"/>
        <phase duration="6"  state="rrryyy"/>
        <phase duration="39" state="GGGrrr"/>
        <phase duration="6"  state="yyyrrr"/>
    </tlLogic>
    <tlLogic id="cluster_2376922842_313388107" type="static" programID="0" offset="0">
        <phase duration="42" state="rrrrrgggggGGGggrrrrrGGggg"/>
        <phase duration="3"  state="rrrrryyyyyyyyyyrrrrryyyyy"/>
        <phase duration="42" state="GGGggrrrrrrrrrrGGgggrrrrr"/>
        <phase duration="3"  state="yyyyyrrrrrrrrrryyyyyrrrrr"/>
    </tlLogic>
    <tlLogic id="cluster_242839231_5157284990_5157285140" type="static" programID="0" offset="0">
        <phase duration="39" state="rrGGG"/>
        <phase duration="6"  state="rryyy"/>
        <phase duration="39" state="GGrrr"/>
        <phase duration="6"  state="yyrrr"/>
    </tlLogic>
    <tlLogic id="cluster_256739938_256739939_571061520" type="static" programID="0" offset="0">
        <phase duration="40" state="ggGGggrrrrrrGGggggggggggrrrrrrgggggg"/>
        <phase duration="5"  state="yyyyyyrrrrrryyyyyyyyyyyyrrrrrryyyyyy"/>
        <phase duration="40" state="rrrrrrGGGgggrrrrrrrrrrrrGGGgggrrrrrr"/>
        <phase duration="5"  state="rrrrrryyyyyyrrrrrrrrrrrryyyyyyrrrrrr"/>
    </tlLogic>
    <tlLogic id="cluster_274902763_291925762_5115515382_571014638" type="static" programID="0" offset="0">
        <phase duration="38" state="rrrrrrrggggggggggGGggrrrrrrrGGGggggggggggggrrrrrrr"/>
        <phase duration="3"  state="rrrrrrrggggggggggyyggrrrrrrryyyggggggggggggrrrrrrr"/>
        <phase duration="6"  state="rrrrrrrggggggggggrrGgrrrrrrrrrrGggGggggggggrrrrrrr"/>
        <phase duration="3"  state="rrrrrrryyyyyyyyyyrryyrrrrrrrrrryyyyyyyyyyyyrrrrrrr"/>
        <phase duration="37" state="gggggggrrrrrrrrrrrrrrGGGggggrrrrrrrrrrrrrrrGGGgggg"/>
        <phase duration="3"  state="yyyyyyyrrrrrrrrrrrrrryyyyyyyrrrrrrrrrrrrrrryyyyyyy"/>
    </tlLogic>
    <tlLogic id="cluster_274902826_291925731_571014620" type="static" programID="0" offset="0">
        <phase duration="38" state="rrrrrrggggggggGGGggrrrrrrGGGgggggggggg"/>
        <phase duration="3"  state="rrrrrrggggggggyyyggrrrrrryyygggggggggg"/>
        <phase duration="6"  state="rrrrrrggggggggrrrGgrrrrrrrrrGgGggggggg"/>
        <phase duration="3"  state="rrrrrryyyyyyyyrrryyrrrrrrrrryyyyyyyyyy"/>
        <phase duration="37" state="GGGgggrrrrrrrrrrrrrGGGgggrrrrrrrrrrrrr"/>
        <phase duration="3"  state="yyyyyyrrrrrrrrrrrrryyyyyyrrrrrrrrrrrrr"/>
    </tlLogic>
    <tlLogic id="cluster_296163843_296163844_3735462609_3735462610_#2more" type="static" programID="0" offset="0">
        <phase duration="40" state="ggGGggrrrrrrGGGggggggggggrrrrrrgggggg"/>
        <phase duration="5"  state="yyyyyyrrrrrryyyyyyyyyyyyyrrrrrryyyyyy"/>
        <phase duration="40" state="rrrrrrGGGgggrrrrrrrrrrrrrGGGgggrrrrrr"/>
        <phase duration="5"  state="rrrrrryyyyyyrrrrrrrrrrrrryyyyyyrrrrrr"/>
    </tlLogic>
    <tlLogic id="cluster_313406956_5113008082_5156746938_916768945" type="static" programID="0" offset="0">
        <phase duration="40" state="GGgrrrrGgg"/>
        <phase duration="5"  state="yyyrrrryyy"/>
        <phase duration="40" state="rrrGGGGrrr"/>
        <phase duration="5"  state="rrryyyyrrr"/>
    </tlLogic>
    <tlLogic id="cluster_365506110_5032791984_7548573764_7548620093" type="static" programID="0" offset="0">
        <phase duration="25" state="GggrrrGGgrrr"/>
        <phase duration="5"  state="yyyrrryyyrrr"/>
        <phase duration="25" state="rrrGGGrrrrrr"/>
        <phase duration="5"  state="rrryyyrrrrrr"/>
        <phase duration="25" state="rrrrrrrrrGGG"/>
        <phase duration="5"  state="rrrrrrrrryyy"/>
    </tlLogic>
    <tlLogic id="joinedS_10172980600_2165172615" type="static" programID="0" offset="0">
        <phase duration="40" state="rrrrGGGGGGGGGGrrrr"/>
        <phase duration="5"  state="rrrryyyyyyyyyyrrrr"/>
        <phase duration="40" state="GGGGrrrrrrrrrrGGGG"/>
        <phase duration="5"  state="yyyyrrrrrrrrrryyyy"/>
    </tlLogic>
    <tlLogic id="joinedS_1027300629_1027300985_1027301064_1027301070_#1more" type="static" programID="0" offset="0">
        <phase duration="16" state="GGrrrrrrrr"/>
        <phase duration="5"  state="yyrrrrrrrr"/>
        <phase duration="18" state="rrrrGGrrrr"/>
        <phase duration="5"  state="rrrryyrrrr"/>
        <phase duration="18" state="rrGGrrGGrr"/>
        <phase duration="5"  state="rryyrryyrr"/>
        <phase duration="18" state="rrGGrrrrGG"/>
        <phase duration="5"  state="rryyrrrryy"/>
    </tlLogic>
    <tlLogic id="joinedS_1027300640_1027300874_1027301044_1027301182_#1more" type="static" programID="0" offset="0">
        <phase duration="25" state="GGGGGGGrGG"/>
        <phase duration="5"  state="yyyyyyyryy"/>
        <phase duration="25" state="GGGGGGGGrr"/>
        <phase duration="5"  state="yyyyyyyyrr"/>
        <phase duration="25" state="GGGGGGGGrr"/>
        <phase duration="5"  state="yyyyyyyyrr"/>
    </tlLogic>
    <tlLogic id="joinedS_11708869873_5239269953_570977066" type="static" programID="0" offset="0">
        <phase duration="16" state="GGGGgrrrGggGGGrrrrrr"/>
        <phase duration="5"  state="yyyyyrrryyyyyyrrrrrr"/>
        <phase duration="18" state="rrrrrGGGrrrGGGrrrrrr"/>
        <phase duration="5"  state="rrrrryyyrrryyyrrrrrr"/>
        <phase duration="18" state="rrGggGrGggggggGggGrG"/>
        <phase duration="5"  state="rryyyyryyyyyyyyyyyry"/>
        <phase duration="18" state="rrrrrrrrGGGrrrrrrGGG"/>
        <phase duration="5"  state="rrrrrrrryyyrrrrrryyy"/>
    </tlLogic>
    <tlLogic id="joinedS_1829580649_1829580676_1881415558_1881415571_#1more" type="static" programID="0" offset="0">
        <phase duration="9"  state="GGGrrrrrrGGGGrrrrGGGgggrrrrrrrGGGGggrrrrr"/>
        <phase duration="6"  state="yyyrrrrrryyyyrrrryyyyyyrrrrrrryyyyyyrrrrr"/>
        <phase duration="9"  state="rrrGrrrrrrrrrrrrrrrrrrrrrrrrrrrrrrrrrrrrr"/>
        <phase duration="6"  state="rrryrrrrrrrrrrrrrrrrrrrrrrrrrrrrrrrrrrrrr"/>
        <phase duration="9"  state="rrrrGGGGGrrrrrrrrGGGGGGrrrrrrrrrrrrrrrrrr"/>
        <phase duration="6"  state="rrrryyyyyrrrrrrrryyyyyyrrrrrrrrrrrrrrrrrr"/>
        <phase duration="9"  state="rrrrGrrrGggggGGggGGGgggggrgrrrrrrGrrrrrgr"/>
        <phase duration="6"  state="rrrryrrryyyyyyyyyyyyyyyyyryrrrrrryrrrrryr"/>
        <phase duration="9"  state="rrrrrrrrrGGGGrrrrrrrrrrrrGGGGGrrrrrrrrrrr"/>
        <phase duration="6"  state="rrrrrrrrryyyyrrrrrrrrrrrryyyyyrrrrrrrrrrr"/>
        <phase duration="9"  state="rrrrrrrrrGGGGrrrrrrrrrrrrrrrrrrrrrrrGGGGG"/>
        <phase duration="6"  state="rrrrrrrrryyyyrrrrrrrrrrrrrrrrrrrrrrryyyyy"/>
    </tlLogic>
    <tlLogic id="joinedS_241937304_cluster_361407973_361407975_361407977" type="static" programID="0" offset="0">
        <phase duration="39" state="rGGGGrr"/>
        <phase duration="6"  state="ryyyyrr"/>
        <phase duration="39" state="GrrrrGG"/>
        <phase duration="6"  state="yrrrryy"/>
    </tlLogic>
    <tlLogic id="joinedS_5489185356_cluster_10553214626_254565675_5489185331_5489185357" type="static" programID="0" offset="0">
        <phase duration="24" state="rGGGgggrrrrrrrrrrGGGggrrrrr"/>
        <phase duration="6"  state="ryyyyyyrrrrrrrrrryyyyyrrrrr"/>
        <phase duration="24" state="GGrrrrrGGgggrrrrrrrrrrGGGgg"/>
        <phase duration="6"  state="yyrrrrryyyyyrrrrrrrrrryyyyy"/>
        <phase duration="24" state="rGrrrrrrrrrrGGGGgGrrrrrrrrr"/>
        <phase duration="6"  state="ryrrrrrrrrrryyyyyyrrrrrrrrr"/>
    </tlLogic>
    <tlLogic id="joinedS_571081599_cluster_571082733_571082737" type="static" programID="0" offset="0">
        <phase duration="27" state="rrrrrrrGGGGgggrrrrrrrrrgggggGGGGGgggg"/>
        <phase duration="3"  state="rrrrrrryyyyyyyrrrrrrrrryyyyyyyyyyyyyy"/>
        <phase duration="27" state="GGGGgggrrrrrrrrrrrrGGGGGrrrrrrrrrrrrr"/>
        <phase duration="3"  state="yyyyyyyrrrrrrrrrrrryyyyyrrrrrrrrrrrrr"/>
        <phase duration="27" state="GGGGrrrrrrrrrrGGGGgGrrrrrrrrrrrrrrrrr"/>
        <phase duration="3"  state="yyyyrrrrrrrrrryyyyyyrrrrrrrrrrrrrrrrr"/>
    </tlLogic>

    <connection from="-109713204#5" to="-109713204#4" fromLane="0" toLane="0" tl="cluster_11955063522_1255234710_2376793627_576506376" linkIndex="13"/>
    <connection from="-109713204#5" to="1289258052#0" fromLane="0" toLane="0" tl="cluster_11955063522_1255234710_2376793627_576506376" linkIndex="14"/>
    <connection from="-109713204#5" to="45349755#3" fromLane="0" toLane="0" tl="cluster_11955063522_1255234710_2376793627_576506376" linkIndex="15"/>
    <connection from="-109713204#5" to="-45349755#0" fromLane="0" toLane="0" tl="cluster_11955063522_1255234710_2376793627_576506376" linkIndex="16"/>
    <connection from="-109713204#5" to="109713204#5" fromLane="0" toLane="0" tl="cluster_11955063522_1255234710_2376793627_576506376" linkIndex="17"/>
    <connection from="-109830958#0" to="-22530954#1" fromLane="0" toLane="0" tl="cluster_11584482913_1256317134_258926295_6517961627_#1more" linkIndex="8"/>
    <connection from="-109830958#0" to="-694249985" fromLane="0" toLane="0" tl="cluster_11584482913_1256317134_258926295_6517961627_#1more" linkIndex="9"/>
    <connection from="-109830958#0" to="23888466#1" fromLane="0" toLane="0" tl="cluster_11584482913_1256317134_258926295_6517961627_#1more" linkIndex="10"/>
    <connection from="-109830958#0" to="694249988#1" fromLane="0" toLane="0" tl="cluster_11584482913_1256317134_258926295_6517961627_#1more" linkIndex="11"/>
    <connection from="-109830958#0" to="708241083" fromLane="0" toLane="0" tl="cluster_11584482913_1256317134_258926295_6517961627_#1more" linkIndex="12"/>
    <connection from="-109830958#0" to="708241083" fromLane="0" toLane="1" tl="cluster_11584482913_1256317134_258926295_6517961627_#1more" linkIndex="13"/>
    <connection from="-109830958#0" to="-708242153" fromLane="0" toLane="0" tl="cluster_11584482913_1256317134_258926295_6517961627_#1more" linkIndex="14"/>
    <connection from="-109830958#0" to="694252012" fromLane="0" toLane="0" tl="cluster_11584482913_1256317134_258926295_6517961627_#1more" linkIndex="15"/>
    <connection from="-1283060619" to="-1286295878#0" fromLane="0" toLane="0" tl="cluster_313406956_5113008082_5156746938_916768945" linkIndex="7"/>
    <connection from="-1283060619" to="1087578595#1" fromLane="0" toLane="1" tl="cluster_313406956_5113008082_5156746938_916768945" linkIndex="8"/>
    <connection from="-1283060619" to="1283060619" fromLane="0" toLane="0" tl="cluster_313406956_5113008082_5156746938_916768945" linkIndex="9"/>
    <connection from="-1289258052#0" to="45349755#3" fromLane="0" toLane="0" tl="cluster_11955063522_1255234710_2376793627_576506376" linkIndex="0"/>
    <connection from="-1289258052#0" to="-45349755#0" fromLane="0" toLane="0" tl="cluster_11955063522_1255234710_2376793627_576506376" linkIndex="1"/>
    <connection from="-1289258052#0" to="1289258052#0" fromLane="0" toLane="0" tl="cluster_11955063522_1255234710_2376793627_576506376" linkIndex="2"/>
    <connection from="-1334485958#0" to="-1334485957#0" fromLane="0" toLane="0" tl="11032090236" linkIndex="7"/>
    <connection from="-1334485958#0" to="370297373#3" fromLane="0" toLane="1" tl="11032090236" linkIndex="8"/>
    <connection from="-1334485958#0" to="1334485957#1" fromLane="0" toLane="0" tl="11032090236" linkIndex="9"/>
    <connection from="-1334485958#1" to="-1334485958#0" fromLane="0" toLane="0" tl="cluster_10838097627_10838097654_12098584629_241770957" linkIndex="7"/>
    <connection from="-1334485958#1" to="1334485958#1" fromLane="0" toLane="0" tl="cluster_10838097627_10838097654_12098584629_241770957" linkIndex="9"/>
    <connection from="-1334485958#1" to="1080383825#2" fromLane="0" toLane="1" tl="cluster_10838097627_10838097654_12098584629_241770957" linkIndex="8"/>
    <connection from="-168446493#0" to="318127076#0" fromLane="0" toLane="0" tl="cluster_256739938_256739939_571061520" linkIndex="18"/>
    <connection from="-168446493#0" to="-1197071400#0" fromLane="0" toLane="0" tl="cluster_256739938_256739939_571061520" linkIndex="19"/>
    <connection from="-168446493#0" to="318127077#0" fromLane="0" toLane="0" tl="cluster_256739938_256739939_571061520" linkIndex="20"/>
    <connection from="-168446493#0" to="-45026981#10" fromLane="0" toLane="0" tl="cluster_256739938_256739939_571061520" linkIndex="21"/>
    <connection from="-168446493#0" to="26732981#1" fromLane="0" toLane="0" tl="cluster_256739938_256739939_571061520" linkIndex="22"/>
    <connection from="-168446493#0" to="168446493#0" fromLane="0" toLane="0" tl="cluster_256739938_256739939_571061520" linkIndex="23"/>
    <connection from="-168446493#1" to="318127076#2" fromLane="0" toLane="0" tl="cluster_1256316987_2266897443_796103879" linkIndex="8"/>
    <connection from="-168446493#1" to="-168446493#0" fromLane="0" toLane="0" tl="cluster_1256316987_2266897443_796103879" linkIndex="9"/>
    <connection from="-168446493#1" to="-64994341#0" fromLane="0" toLane="0" tl="cluster_1256316987_2266897443_796103879" linkIndex="10"/>
    <connection from="-168446493#1" to="168446493#1" fromLane="0" toLane="0" tl="cluster_1256316987_2266897443_796103879" linkIndex="11"/>
    <connection from="-168446493#10" to="23709142#4" fromLane="0" toLane="0" tl="cluster_274902763_291925762_5115515382_571014638" linkIndex="36"/>
    <connection from="-168446493#10" to="26616103#1" fromLane="0" toLane="0" tl="cluster_274902763_291925762_5115515382_571014638" linkIndex="37"/>
    <connection from="-168446493#10" to="23906057#2" fromLane="0" toLane="0" tl="cluster_274902763_291925762_5115515382_571014638" linkIndex="38"/>
    <connection from="-168446493#10" to="-168446493#8" fromLane="0" toLane="0" tl="cluster_274902763_291925762_5115515382_571014638" linkIndex="39"/>
    <connection from="-168446493#10" to="525934688#0" fromLane="0" toLane="0" tl="cluster_274902763_291925762_5115515382_571014638" linkIndex="40"/>
    <connection from="-168446493#10" to="25212039#1" fromLane="0" toLane="0" tl="cluster_274902763_291925762_5115515382_571014638" linkIndex="41"/>
    <connection from="-168446493#10" to="168446493#10" fromLane="0" toLane="0" tl="cluster_274902763_291925762_5115515382_571014638" linkIndex="42"/>
    <connection from="-168446493#7" to="23709142#3" fromLane="0" toLane="0" tl="cluster_274902826_291925731_571014620" linkIndex="32"/>
    <connection from="-168446493#7" to="-202273955#5" fromLane="0" toLane="0" tl="cluster_274902826_291925731_571014620" linkIndex="33"/>
    <connection from="-168446493#7" to="23906057#3" fromLane="0" toLane="1" tl="cluster_274902826_291925731_571014620" linkIndex="34"/>
    <connection from="-168446493#7" to="-168446493#6" fromLane="0" toLane="0" tl="cluster_274902826_291925731_571014620" linkIndex="35"/>
    <connection from="-168446493#7" to="25212046#1" fromLane="0" toLane="0" tl="cluster_274902826_291925731_571014620" linkIndex="36"/>
    <connection from="-168446493#7" to="168446493#7" fromLane="0" toLane="0" tl="cluster_274902826_291925731_571014620" linkIndex="37"/>
    <connection from="-177706213#1" to="-177706213#0" fromLane="0" toLane="0" tl="joinedS_1829580649_1829580676_1881415558_1881415571_#1more" linkIndex="9"/>
    <connection from="-177706213#1" to="177706203" fromLane="0" toLane="0" tl="joinedS_1829580649_1829580676_1881415558_1881415571_#1more" linkIndex="10"/>
    <connection from="-177706213#1" to="617181969#0" fromLane="0" toLane="1" tl="joinedS_1829580649_1829580676_1881415558_1881415571_#1more" linkIndex="11"/>
    <connection from="-177706213#1" to="177706213#1" fromLane="0" toLane="0" tl="joinedS_1829580649_1829580676_1881415558_1881415571_#1more" linkIndex="12"/>