<?xml version="1.0" encoding="UTF-8"?>

<!-- generated on 2025-04-04 16:24:51 by Eclipse SUMO netconvert Version 1.19.0
<configuration xmlns:xsi="http://www.w3.org/2001/XMLSchema-instance" xsi:noNamespaceSchemaLocation="http://sumo.dlr.de/xsd/netconvertConfiguration.xsd">

    <input>
        <sumo-net-file value="la_verriere/la_verriere.net.xml"/>
    </input>

    <output>
        <plain-output-prefix value="la_verriere/la_verriere"/>
    </output>

    <processing>
        <geometry.min-radius.fix.railways value="false"/>
        <geometry.max-grade.fix value="false"/>
        <offset.disable-normalization value="true"/>
        <lefthand value="0"/>
    </processing>

    <tls_building>
        <tls.ignore-internal-junction-jam value="1"/>
    </tls_building>

    <junctions>
        <no-turnarounds value="true"/>
        <junctions.corner-detail value="5"/>
        <junctions.limit-turn-speed value="5.50"/>
        <rectangular-lane-cut value="0"/>
    </junctions>

    <pedestrian>
        <walkingareas value="0"/>
    </pedestrian>

</configuration>
-->

<nodes version="1.16" xmlns:xsi="http://www.w3.org/2001/XMLSchema-instance" xsi:noNamespaceSchemaLocation="http://sumo.dlr.de/xsd/nodes_file.xsd">
    <location netOffset="-412398.86,-5396983.68" convBoundary="0.00,0.00,16381.01,9120.13" origBoundary="0.188913,48.585176,2.941998,49.487412" projParameter="+proj=utm +zone=31 +ellps=WGS84 +datum=WGS84 +units=m +no_defs"/>

    <node id="10024646713" x="14113.88" y="5408.29" type="priority"/>
    <node id="10024754225" x="14020.10" y="5372.43" type="right_before_left"/>
    <node id="10024754226" x="14063.63" y="5376.95" type="priority"/>
    <node id="10024754229" x="13976.04" y="5322.53" type="priority"/>
    <node id="10024754235" x="13916.50" y="5284.22" type="priority"/>
    <node id="10024754237" x="14033.52" y="5414.36" type="priority"/>
    <node id="10024754238" x="14005.21" y="5396.25" type="right_before_left"/>
    <node id="10042808401" x="7855.45" y="2525.26" type="right_before_left"/>
    <node id="10042808402" x="7879.86" y="2556.67" type="priority"/>
    <node id="10043951172" x="11389.26" y="5635.43" type="priority"/>
    <node id="10043951180" x="11356.64" y="5537.35" type="priority"/>
    <node id="10043951181" x="11382.03" y="5563.64" type="right_before_left"/>
    <node id="10043951182" x="11470.36" y="5580.22" type="priority"/>
    <node id="10043951183" x="11423.63" y="5571.08" type="right_before_left"/>
    <node id="10048757657" x="8862.51" y="858.69" type="right_before_left"/>
    <node id="10048757673" x="8790.69" y="910.77" type="priority"/>
    <node id="10086471260" x="11292.99" y="2939.86" type="priority"/>
    <node id="10086471261" x="11342.55" y="2970.54" type="priority"/>
    <node id="10086471262" x="11326.08" y="2960.42" type="right_before_left"/>
    <node id="10086471269" x="11387.73" y="2902.50" type="right_before_left"/>
    <node id="10086471270" x="11389.64" y="2917.03" type="priority"/>
    <node id="10086471271" x="11384.81" y="2883.36" type="priority"/>
    <node id="10086471272" x="11374.26" y="2957.47" type="dead_end"/>
    <node id="10086471273" x="11342.55" y="2935.15" type="priority"/>
    <node id="10086471274" x="11310.02" y="2913.89" type="priority"/>
    <node id="10086471275" x="11315.07" y="2906.94" type="priority"/>
    <node id="10086471277" x="11346.73" y="2929.08" type="right_before_left"/>
    <node id="1010567496" x="9412.20" y="4342.47" type="right_before_left"/>
    <node id="1010567500" x="9357.53" y="4409.19" type="priority"/>
    <node id="1010567527" x="9384.74" y="4306.86" type="priority"/>
    <node id="1010567529" x="9351.40" y="4413.39" type="priority"/>
    <node id="1010575766" x="9725.52" y="4135.31" type="priority"/>
    <node id="1010575781" x="9642.64" y="4192.60" type="priority"/>
    <node id="10116062396" x="14608.11" y="5863.30" type="dead_end"/>
    <node id="10116062406" x="14601.05" y="5879.72" type="dead_end"/>
    <node id="10116260349" x="8429.89" y="5027.71" type="priority"/>
    <node id="10118612529" x="9239.23" y="3789.34" type="right_before_left"/>
    <node id="10118612533" x="9271.66" y="3755.30" type="right_before_left"/>
    <node id="10118612535" x="9215.82" y="3701.24" type="priority"/>
    <node id="10118612536" x="9300.35" y="3788.71" type="priority"/>
    <node id="10118612541" x="9283.93" y="3806.93" type="right_before_left"/>
    <node id="10118612542" x="9252.52" y="3775.39" type="right_before_left"/>
    <node id="10118612543" x="9295.50" y="3794.09" type="right_before_left"/>
    <node id="10118612544" x="9264.03" y="3763.31" type="right_before_left"/>
    <node id="10121759950" x="10532.57" y="8462.13" type="priority"/>
    <node id="10121759951" x="10593.30" y="8448.85" type="priority"/>
    <node id="10121759954" x="10548.23" y="8458.70" type="priority"/>
    <node id="10121759956" x="10546.39" y="8418.84" type="right_before_left"/>
    <node id="10121759959" x="10593.83" y="8426.87" type="right_before_left"/>
    <node id="10121759960" x="10564.03" y="8455.24" type="priority"/>
    <node id="10121759961" x="10562.49" y="8421.57" type="right_before_left"/>
    <node id="10121759966" x="10579.95" y="8451.93" type="priority"/>
    <node id="10121759968" x="10577.39" y="8424.11" type="right_before_left"/>
    <node id="10121759973" x="10594.36" y="8489.26" type="dead_end"/>
    <node id="10125298961" x="8289.56" y="2876.56" type="priority"/>
    <node id="10125298967" x="8390.16" y="2954.12" type="priority"/>
    <node id="10125298969" x="8232.27" y="2838.17" type="priority"/>
    <node id="10125298970" x="8262.03" y="2895.06" type="priority"/>
    <node id="10125298975" x="8256.24" y="2866.21" type="priority"/>
    <node id="10125303663" x="7552.02" y="2164.49" type="priority"/>
    <node id="10125303669" x="7575.03" y="2191.12" type="priority"/>
    <node id="10125303670" x="7512.54" y="2101.96" type="priority"/>
    <node id="10125303673" x="7519.78" y="2120.87" type="priority"/>
    <node id="10125303678" x="7552.49" y="2233.01" type="priority"/>
    <node id="10125303683" x="7668.50" y="2054.28" type="priority"/>
    <node id="10125341545" x="8495.91" y="3099.76" type="right_before_left"/>
    <node id="10125341555" x="8527.50" y="3075.78" type="right_before_left"/>
    <node id="10125341559" x="8511.43" y="3105.52" type="priority"/>
    <node id="10125341562" x="8801.07" y="3378.19" type="right_before_left"/>
    <node id="10125341563" x="8788.37" y="3369.10" type="right_before_left"/>
    <node id="10125739868" x="9161.80" y="6768.61" type="right_before_left"/>
    <node id="10125739871" x="9059.94" y="6716.26" type="right_before_left"/>
    <node id="10126204497" x="8142.53" y="2777.43" type="priority"/>
    <node id="10126204498" x="8486.73" y="2606.08" type="priority"/>
    <node id="10126204500" x="8363.23" y="2693.79" type="priority"/>
    <node id="10126207347" x="8188.90" y="2556.83" type="priority"/>
    <node id="10126207373" x="8767.78" y="2759.74" type="priority"/>
    <node id="10126207382" x="7596.46" y="1558.31" type="priority"/>
    <node id="10126207397" x="8453.39" y="2445.40" type="dead_end"/>
    <node id="10126207398" x="8466.26" y="2458.93" type="dead_end"/>
    <node id="10126207407" x="8261.91" y="2616.56" type="priority"/>
    <node id="10126207408" x="8261.50" y="2605.73" type="priority"/>
    <node id="10126207414" x="8285.16" y="2577.77" type="priority"/>
    <node id="10126207423" x="8297.35" y="2570.12" type="dead_end"/>
    <node id="10126207427" x="8287.81" y="2550.93" type="dead_end"/>
    <node id="10126207431" x="8273.38" y="2549.43" type="dead_end"/>
    <node id="10126207432" x="8276.99" y="2545.83" type="dead_end"/>
    <node id="10126207433" x="8268.36" y="2553.20" type="dead_end"/>
    <node id="10126207444" x="8268.31" y="2548.98" type="dead_end"/>
    <node id="10132841343" x="14656.28" y="5958.34" type="priority"/>
    <node id="10132841344" x="14589.49" y="5905.67" type="dead_end"/>
    <node id="10132841347" x="14512.52" y="5846.87" type="dead_end"/>
    <node id="10132841354" x="14518.39" y="5857.67" type="dead_end"/>
    <node id="10132841355" x="14931.83" y="5660.17" type="dead_end"/>
    <node id="10132841356" x="14623.16" y="5952.27" type="dead_end"/>
    <node id="10132841357" x="14620.68" y="5951.27" type="dead_end"/>
    <node id="10132841372" x="14521.90" y="6215.88" type="dead_end"/>
    <node id="10132841373" x="14529.62" y="6199.72" type="dead_end"/>
    <node id="10132841379" x="14791.98" y="6013.49" type="priority"/>
    <node id="10132841393" x="14662.47" y="5955.28" type="priority"/>
    <node id="10132841399" x="14557.85" y="5915.08" type="dead_end"/>
    <node id="10132841416" x="14602.48" y="5882.39" type="dead_end"/>
    <node id="10132847318" x="14594.33" y="5885.72" type="dead_end"/>
    <node id="10132847319" x="14596.25" y="5886.46" type="dead_end"/>
    <node id="10132847320" x="14601.47" y="5888.47" type="dead_end"/>
    <node id="10132847321" x="14600.49" y="5890.90" type="dead_end"/>
    <node id="10132847323" x="14619.95" y="5899.59" type="dead_end"/>
    <node id="10132847324" x="14600.15" y="5891.76" type="dead_end"/>
    <node id="10132847325" x="14599.17" y="5894.15" type="dead_end"/>
    <node id="10132847330" x="14602.52" y="5888.82" type="dead_end"/>
    <node id="10132847331" x="14599.57" y="5892.99" type="dead_end"/>
    <node id="10132847332" x="14593.88" y="5907.39" type="dead_end"/>
    <node id="10132847334" x="14590.62" y="5906.11" type="dead_end"/>
    <node id="10132847335" x="14585.44" y="5919.87" type="dead_end"/>
    <node id="10132847336" x="14588.51" y="5921.06" type="dead_end"/>
    <node id="10132847342" x="14589.14" y="5922.56" type="dead_end"/>
    <node id="10132847353" x="14588.92" y="5907.11" type="dead_end"/>
    <node id="10132847356" x="14590.07" y="5904.21" type="dead_end"/>
    <node id="10132847359" x="14588.98" y="5905.47" type="dead_end"/>
    <node id="10132847366" x="14580.74" y="5902.24" type="dead_end"/>
    <node id="10132847367" x="14588.46" y="5905.26" type="dead_end"/>
    <node id="10132847376" x="14609.32" y="5896.81" type="dead_end"/>
    <node id="10132847378" x="14598.36" y="5892.51" type="dead_end"/>
    <node id="10132847379" x="14600.69" y="5893.43" type="dead_end"/>
    <node id="10132847391" x="14592.32" y="5905.09" type="dead_end"/>
    <node id="10132847423" x="14479.29" y="5872.42" type="priority"/>
    <node id="10137504457" x="13051.96" y="4735.77" type="priority"/>
    <node id="10137504462" x="13254.03" y="4398.85" type="right_before_left"/>
    <node id="10137504470" x="13091.78" y="4672.09" type="right_before_left"/>
    <node id="10137504471" x="13061.74" y="4651.72" type="right_before_left"/>
    <node id="10137504474" x="13076.55" y="4661.76" type="right_before_left"/>
    <node id="10137504477" x="13051.62" y="4563.73" type="priority"/>
    <node id="10137504485" x="13016.40" y="4566.52" type="right_before_left"/>
    <node id="10137504497" x="13060.20" y="4593.02" type="priority"/>
    <node id="10137504498" x="13138.41" y="4597.30" type="right_before_left"/>
    <node id="10137504503" x="12966.79" y="4487.26" type="right_before_left"/>
    <node id="10137504516" x="13116.13" y="4633.16" type="right_before_left"/>
    <node id="10137535320" x="13096.01" y="4665.33" type="right_before_left"/>
    <node id="10137535321" x="13157.93" y="4565.74" type="right_before_left"/>
    <node id="10137535324" x="12997.02" y="4465.74" type="right_before_left"/>
    <node id="10137535325" x="13042.15" y="4395.90" type="priority"/>
    <node id="10137535326" x="12976.98" y="4496.12" type="right_before_left"/>
    <node id="10137535329" x="13006.16" y="4402.58" type="priority"/>
    <node id="10137535330" x="13016.75" y="4409.03" type="right_before_left"/>
    <node id="10137535331" x="13249.14" y="4377.16" type="right_before_left"/>
    <node id="10137535340" x="13063.84" y="4361.15" type="priority"/>
    <node id="10143018261" x="10013.10" y="3800.25" type="priority"/>
    <node id="10143018264" x="10189.75" y="3860.37" type="priority"/>
    <node id="10143018265" x="10194.59" y="3855.25" type="priority"/>
    <node id="10143018285" x="9760.78" y="3964.09" type="priority"/>
    <node id="10143018289" x="9715.89" y="3814.37" type="priority"/>
    <node id="10143018298" x="9801.69" y="3862.85" type="dead_end"/>
    <node id="10143030451" x="10049.14" y="3908.37" type="dead_end"/>
    <node id="10143030454" x="9863.40" y="4011.31" type="dead_end" fringe="inner">
        <param key="buffer_stop" value="true"/>
    </node>
    <node id="10143030457" x="9950.58" y="3851.85" type="dead_end"/>
    <node id="10143030462" x="9982.22" y="3884.77" type="dead_end"/>
    <node id="10143030470" x="9963.29" y="3856.60" type="dead_end"/>
    <node id="10143030473" x="9862.86" y="4023.98" type="priority"/>
    <node id="10143030476" x="10049.36" y="3895.05" type="traffic_light" tl="10143030476"/>
    <node id="10143030477" x="9984.43" y="3873.31" type="priority"/>
    <node id="10143030499" x="10077.71" y="3914.32" type="priority"/>
    <node id="10143030500" x="10062.09" y="3910.63" type="priority"/>
    <node id="10143030502" x="10050.65" y="3903.63" type="traffic_light" tl="10143030502"/>
    <node id="10143030507" x="10258.53" y="4028.49" type="priority"/>
    <node id="10143030508" x="10262.86" y="4028.73" type="dead_end"/>
    <node id="10143030511" x="9984.45" y="3893.18" type="dead_end"/>
    <node id="10143030516" x="10031.22" y="3897.52" type="priority"/>
    <node id="10143030522" x="9983.07" y="3888.13" type="priority"/>
    <node id="10143030529" x="9985.52" y="3864.69" type="priority"/>
    <node id="10143030531" x="9930.86" y="3844.37" type="dead_end"/>
    <node id="10143030532" x="9964.36" y="3853.80" type="dead_end"/>
    <node id="10143030533" x="9965.46" y="3851.03" type="dead_end"/>
    <node id="10143030534" x="9974.79" y="3854.36" type="dead_end"/>
    <node id="10143030543" x="9965.69" y="3850.38" type="dead_end"/>
    <node id="10143030554" x="9935.45" y="3832.07" type="dead_end"/>
    <node id="10143030555" x="9941.37" y="3829.40" type="dead_end"/>
    <node id="10143030559" x="9939.87" y="3826.92" type="dead_end"/>
    <node id="10143030560" x="9940.29" y="3825.77" type="dead_end"/>
    <node id="10143030576" x="9947.81" y="3828.28" type="dead_end"/>
    <node id="10143030582" x="9961.49" y="3793.04" type="dead_end"/>
    <node id="10143030617" x="9941.86" y="3814.87" type="dead_end"/>
    <node id="10143030618" x="9946.92" y="3801.05" type="dead_end"/>
    <node id="10143030638" x="9954.81" y="3803.48" type="dead_end"/>
    <node id="10143030642" x="9949.55" y="3817.38" type="dead_end"/>
    <node id="10149101477" x="9939.24" y="3828.63" type="dead_end"/>
    <node id="10152555894" x="8066.93" y="4404.41" type="priority"/>
    <node id="10152555898" x="8089.87" y="4336.53" type="priority"/>
    <node id="10152555901" x="8002.98" y="4292.81" type="priority"/>
    <node id="10152555902" x="8019.37" y="4297.80" type="right_before_left"/>
    <node id="10152555906" x="8102.54" y="4300.40" type="priority"/>
    <node id="10152555908" x="14151.51" y="5633.74" type="priority"/>
    <node id="10152555910" x="14156.42" y="5635.71" type="dead_end"/>
    <node id="10152562660" x="13397.86" y="6653.19" type="priority"/>
    <node id="10157590821" x="8404.54" y="4276.38" type="priority"/>
    <node id="10157590823" x="8412.87" y="4294.33" type="right_before_left"/>
    <node id="10157590825" x="8427.10" y="4302.76" type="priority"/>
    <node id="10157590832" x="8408.11" y="4299.33" type="right_before_left"/>
    <node id="10157590835" x="8388.90" y="4349.08" type="priority"/>
    <node id="10172980600" x="14708.61" y="6408.25" type="traffic_light" tl="joinedS_10172980600_2165172615"/>
    <node id="10173984363" x="7357.53" y="1967.27" type="priority"/>
    <node id="10173984367" x="10932.67" y="4336.75" type="priority"/>
    <node id="10173984370" x="10973.45" y="4357.27" type="priority"/>
    <node id="10175401123" x="8354.25" y="4206.69" type="right_before_left"/>
    <node id="10175401124" x="8193.22" y="4207.91" type="priority"/>
    <node id="10175401129" x="8234.92" y="4224.56" type="priority"/>
    <node id="10175401131" x="8205.94" y="4247.88" type="priority"/>
    <node id="10175401132" x="8195.86" y="4218.90" type="priority"/>
    <node id="10175401133" x="8301.35" y="4245.58" type="priority"/>
    <node id="10175401143" x="8119.25" y="4454.81" type="priority"/>
    <node id="10175401148" x="8294.14" y="4489.83" type="priority"/>
    <node id="10175401175" x="7759.52" y="4612.93" type="priority"/>
    <node id="10175401176" x="7767.59" y="4587.26" type="priority"/>
    <node id="10175401177" x="7757.47" y="4563.44" type="right_before_left"/>
    <node id="10175401178" x="7775.81" y="4367.05" type="priority"/>
    <node id="10175401179" x="7843.92" y="4525.79" type="right_before_left"/>
    <node id="10175401180" x="7847.30" y="4533.90" type="priority"/>
    <node id="10175401181" x="7808.64" y="4489.29" type="priority"/>
    <node id="10175401182" x="7827.03" y="4533.14" type="right_before_left"/>
    <node id="10175401183" x="7831.17" y="4543.09" type="priority"/>
    <node id="10175401184" x="7815.03" y="4550.25" type="priority"/>
    <node id="10175401185" x="7810.74" y="4540.23" type="right_before_left"/>
    <node id="10175401186" x="7794.65" y="4503.06" type="right_before_left"/>
    <node id="10175401187" x="7799.23" y="4560.07" type="priority"/>
    <node id="10175401188" x="7793.96" y="4547.54" type="right_before_left"/>
    <node id="10175401189" x="7778.19" y="4510.23" type="right_before_left"/>
    <node id="10175401190" x="7782.25" y="4575.41" type="priority"/>
    <node id="10175401191" x="7774.26" y="4556.13" type="right_before_left"/>
    <node id="10175401193" x="7811.36" y="4495.79" type="right_before_left"/>
    <node id="10175401194" x="7827.95" y="4488.57" type="right_before_left"/>
    <node id="10175401195" x="7740.98" y="4599.48" type="priority"/>
    <node id="10175401196" x="7751.84" y="4594.43" type="right_before_left"/>
    <node id="10175401197" x="7733.59" y="4582.96" type="priority"/>
    <node id="10175401200" x="7726.43" y="4566.56" type="priority"/>
    <node id="10175401202" x="7719.39" y="4550.16" type="priority"/>
    <node id="10175411025" x="8072.24" y="4427.59" type="priority"/>
    <node id="10175411036" x="8035.33" y="4419.40" type="right_before_left"/>
    <node id="10175411037" x="8067.95" y="4406.42" type="priority"/>
    <node id="10175411038" x="8074.60" y="4432.35" type="priority"/>
    <node id="10175411040" x="7976.85" y="4448.79" type="right_before_left"/>
    <node id="10175411043" x="8009.99" y="4449.94" type="priority"/>
    <node id="10175411044" x="7995.53" y="4421.42" type="priority"/>
    <node id="10175411045" x="7969.56" y="4434.59" type="right_before_left"/>
    <node id="10175411046" x="7983.84" y="4408.99" type="priority"/>
    <node id="10175411047" x="7962.23" y="4420.30" type="right_before_left"/>
    <node id="10175411055" x="7993.66" y="4320.97" type="priority"/>
    <node id="10175411058" x="7979.81" y="4332.32" type="priority"/>
    <node id="10175411059" x="7984.93" y="4317.90" type="right_before_left"/>
    <node id="10175411061" x="8151.79" y="4504.94" type="right_before_left"/>
    <node id="10175411068" x="8422.93" y="4585.03" type="priority"/>
    <node id="10175411072" x="8465.46" y="4593.10" type="priority"/>
    <node id="10175411083" x="8319.71" y="4258.92" type="priority"/>
    <node id="10175411093" x="8826.46" y="4043.70" type="right_before_left"/>
    <node id="10175411094" x="8833.77" y="3996.94" type="right_before_left"/>
    <node id="10175411099" x="8667.91" y="4117.04" type="right_before_left"/>
    <node id="10175411100" x="8661.10" y="4101.67" type="right_before_left"/>
    <node id="10175411103" x="8454.18" y="3922.53" type="priority"/>
    <node id="10175411111" x="8448.90" y="4066.39" type="right_before_left"/>
    <node id="10175411112" x="8451.41" y="4071.62" type="priority"/>
    <node id="10175411113" x="8478.14" y="4051.60" type="priority"/>
    <node id="10175411115" x="8413.73" y="3997.69" type="right_before_left"/>
    <node id="10175411116" x="8398.48" y="4005.80" type="priority"/>
    <node id="10175411119" x="8672.85" y="4128.00" type="right_before_left"/>
    <node id="10175411120" x="8678.55" y="4138.61" type="priority"/>
    <node id="10175411122" x="9844.58" y="3303.36" type="priority"/>
    <node id="10175411123" x="9817.78" y="3301.26" type="priority"/>
    <node id="10181376555" x="7999.63" y="2791.45" type="priority"/>
    <node id="10181376564" x="7100.81" y="1941.70" type="priority"/>
    <node id="10183846377" x="11351.88" y="5459.06" type="priority"/>
    <node id="10183846386" x="11520.50" y="5644.42" type="priority"/>
    <node id="10183846387" x="11347.71" y="5458.75" type="right_before_left"/>
    <node id="1020820404" x="9952.60" y="3845.31" type="dead_end"/>
    <node id="1020820407" x="9948.85" y="3832.12" type="dead_end"/>
    <node id="1020820415" x="9934.02" y="3836.00" type="dead_end"/>
    <node id="1020820416" x="9932.12" y="3811.25" type="dead_end"/>
    <node id="1020820449" x="9937.14" y="3797.47" type="dead_end"/>
    <node id="1020820483" x="9933.11" y="3838.33" type="dead_end"/>
    <node id="10219502392" x="10517.47" y="2641.48" type="priority"/>
    <node id="10225779468" x="9983.11" y="3876.82" type="dead_end"/>
    <node id="10267020354" x="10785.78" y="8274.94" type="priority"/>
    <node id="10267020356" x="10880.92" y="8228.54" type="priority"/>
    <node id="10267020359" x="10875.41" y="8210.04" type="priority"/>
    <node id="10267020364" x="10783.19" y="8249.51" type="priority"/>
    <node id="1027119969" x="14810.44" y="6448.87" type="priority"/>
    <node id="1027300615" x="9481.32" y="4059.35" type="right_before_left"/>
    <node id="1027300618" x="9471.37" y="4049.60" type="right_before_left"/>
    <node id="1027300629" x="8572.08" y="3077.00" type="traffic_light" tl="joinedS_1027300629_1027300985_1027301064_1027301070_#1more" controlledInner="23461920#0 439449279#0"/>
    <node id="1027300640" x="8638.57" y="3106.54" type="traffic_light" tl="joinedS_1027300640_1027300874_1027301044_1027301182_#1more" controlledInner="720457982#0"/>
    <node id="1027300670" x="8569.00" y="3081.27" type="dead_end"/>
    <node id="1027300694" x="9491.98" y="4050.42" type="right_before_left"/>
    <node id="1027300749" x="9351.96" y="3958.54" type="priority"/>
    <node id="1027300751" x="9182.34" y="3750.09" type="priority"/>
    <node id="1027300767" x="9374.15" y="4002.01" type="priority"/>
    <node id="1027300795" x="8627.07" y="3122.44" type="dead_end"/>
    <node id="1027300798" x="9394.31" y="4004.88" type="priority"/>
    <node id="1027300799" x="9508.80" y="4019.85" type="right_before_left"/>
    <node id="1027300821" x="9458.97" y="4059.26" type="right_before_left"/>
    <node id="1027300845" x="8692.05" y="3073.45" type="priority"/>
    <node id="1027300870" x="8590.04" y="3030.56" type="priority"/>
    <node id="1027300874" x="8631.08" y="3116.58" type="traffic_light" tl="joinedS_1027300640_1027300874_1027301044_1027301182_#1more" controlledInner="720457982#0"/>
    <node id="1027300883" x="9612.83" y="3954.94" type="right_before_left"/>
    <node id="1027300898" x="9502.63" y="3925.47" type="right_before_left"/>
    <node id="1027300900" x="9191.63" y="3521.51" type="priority"/>
    <node id="1027300907" x="9496.32" y="4029.60" type="right_before_left"/>
    <node id="1027300924" x="9441.78" y="3960.57" type="right_before_left"/>
    <node id="1027300944" x="9481.00" y="3929.47" type="right_before_left"/>
    <node id="1027300963" x="9545.68" y="3961.73" type="priority"/>
    <node id="1027300967" x="9389.61" y="4110.05" type="priority"/>
    <node id="1027300985" x="8575.28" y="3088.16" type="traffic_light" tl="joinedS_1027300629_1027300985_1027301064_1027301070_#1more" controlledInner="23461920#0 439449279#0"/>
    <node id="1027300989" x="9404.05" y="3990.48" type="right_before_left"/>
    <node id="1027301000" x="9528.17" y="4094.35" type="right_before_left"/>
    <node id="1027301028" x="8701.74" y="3025.05" type="priority"/>
    <node id="1027301031" x="9429.35" y="3970.43" type="right_before_left"/>
    <node id="1027301044" x="8621.66" y="3128.98" type="traffic_light" tl="joinedS_1027300640_1027300874_1027301044_1027301182_#1more" controlledInner="720457982#0"/>
    <node id="1027301053" x="9548.47" y="3988.05" type="right_before_left"/>
    <node id="1027301064" x="8559.98" y="3081.83" type="traffic_light" tl="joinedS_1027300629_1027300985_1027301064_1027301070_#1more" controlledInner="23461920#0 439449279#0"/>
    <node id="1027301070" x="8580.01" y="3066.03" type="traffic_light" tl="joinedS_1027300629_1027300985_1027301064_1027301070_#1more" controlledInner="23461920#0 439449279#0"/>
    <node id="1027301083" x="9420.10" y="4085.89" type="right_before_left"/>
    <node id="1027301099" x="8704.07" y="3182.72" type="priority"/>
    <node id="1027301103" x="9260.35" y="3579.03" type="priority"/>
    <node id="1027301111" x="8624.48" y="3038.04" type="priority"/>
    <node id="1027301128" x="9535.92" y="3998.09" type="right_before_left"/>
    <node id="1027301130" x="8724.04" y="2998.83" type="priority"/>
    <node id="1027301133" x="8691.75" y="3059.44" type="priority"/>
    <node id="1027301140" x="8555.37" y="3083.83" type="right_before_left"/>
    <node id="1027301171" x="9468.50" y="3939.39" type="right_before_left"/>
    <node id="1027301182" x="8619.46" y="3117.68" type="traffic_light" tl="joinedS_1027300640_1027300874_1027301044_1027301182_#1more" controlledInner="720457982#0"/>
    <node id="1027301186" x="8674.63" y="3104.58" type="priority"/>
    <node id="1027301211" x="9559.43" y="3979.31" type="right_before_left"/>
    <node id="1027301212" x="9483.92" y="4039.56" type="right_before_left"/>
    <node id="1027301220" x="8614.59" y="3142.52" type="dead_end"/>
    <node id="1027301232" x="9434.06" y="4028.21" type="right_before_left"/>
    <node id="1027301234" x="9523.14" y="4008.13" type="right_before_left"/>
    <node id="1027301237" x="9331.98" y="3973.24" type="right_before_left"/>
    <node id="1027301246" x="9291.38" y="4005.16" type="right_before_left"/>
    <node id="1027301273" x="9568.34" y="3990.15" type="right_before_left"/>
    <node id="1027301282" x="9416.73" y="3980.43" type="right_before_left"/>
    <node id="1027301288" x="9454.38" y="3950.58" type="right_before_left"/>
    <node id="1027301290" x="9378.68" y="3945.21" type="priority"/>
    <node id="1027301299" x="8658.21" y="3106.08" type="priority"/>
    <node id="1041225036" x="6366.79" y="5288.48" type="priority"/>
    <node id="1041225051" x="6296.90" y="5282.89" type="priority"/>
    <node id="1041228317" x="6372.59" y="5359.74" type="priority"/>
    <node id="10543489004" x="14162.89" y="5672.16" type="dead_end"/>
    <node id="105446909" x="14492.53" y="5873.15" type="priority"/>
    <node id="105446917" x="13237.10" y="5217.37" type="priority"/>
    <node id="105446929" x="11853.98" y="4491.46" type="priority"/>
    <node id="105446944" x="9779.66" y="3728.44" type="priority"/>
    <node id="105450387" x="15102.23" y="6138.47" type="priority"/>
    <node id="105450389" x="15041.19" y="6104.21" type="priority"/>
    <node id="105450391" x="14981.52" y="6079.29" type="priority"/>
    <node id="105450393" x="14356.23" y="5823.99" type="priority"/>
    <node id="105450428" x="12066.03" y="4697.53" type="rail_crossing"/>
    <node id="105450431" x="11876.07" y="4590.94" type="priority"/>
    <node id="105450436" x="11766.42" y="4547.59" type="priority"/>
    <node id="105454935" x="15096.33" y="6545.01" type="priority"/>
    <node id="105454957" x="11986.24" y="4830.54" type="priority"/>
    <node id="105454968" x="10803.86" y="4327.80" type="priority"/>
    <node id="105454977" x="9883.61" y="4060.49" type="priority"/>
    <node id="105454984" x="9669.81" y="3945.98" type="priority"/>
    <node id="105454999" x="8683.45" y="3154.50" type="priority"/>
    <node id="105455011" x="7899.53" y="2564.39" type="priority"/>
    <node id="105455016" x="7313.81" y="1891.63" type="priority"/>
    <node id="105459956" x="8810.93" y="3231.60" type="priority"/>
    <node id="105459976" x="10807.26" y="4314.51" type="priority"/>
    <node id="105459979" x="11118.76" y="4368.91" type="priority"/>
    <node id="105459985" x="11432.08" y="4506.42" type="priority"/>
    <node id="105459996" x="13557.73" y="5723.79" type="priority"/>
    <node id="10572466263" x="11625.75" y="4029.78" type="dead_end"/>
    <node id="10572466271" x="11583.83" y="4104.61" type="dead_end"/>
    <node id="10572466272" x="11580.57" y="4108.16" type="dead_end"/>
    <node id="10572466275" x="11561.66" y="4135.34" type="dead_end"/>
    <node id="10572466276" x="11573.54" y="4125.58" type="dead_end"/>
    <node id="10572466277" x="11570.43" y="4120.14" type="dead_end"/>
    <node id="10572466278" x="11567.01" y="4042.67" type="priority"/>
    <node id="10572466283" x="11658.74" y="4020.35" type="dead_end"/>
    <node id="10572466285" x="11580.74" y="4038.90" type="dead_end"/>
    <node id="10572466286" x="11592.19" y="4094.92" type="dead_end"/>
    <node id="10572466288" x="11529.17" y="4154.71" type="dead_end"/>
    <node id="10572466289" x="11579.04" y="4181.05" type="dead_end"/>
    <node id="10572466290" x="11577.74" y="4169.77" type="dead_end"/>
    <node id="10572466291" x="11629.16" y="4028.54" type="dead_end"/>
    <node id="10572466292" x="11636.72" y="4067.58" type="dead_end"/>
    <node id="10572466300" x="11631.85" y="4106.32" type="dead_end"/>
    <node id="10572466301" x="11658.34" y="4063.21" type="dead_end"/>
    <node id="10572466302" x="11611.22" y="4073.06" type="dead_end"/>
    <node id="10572466303" x="11631.33" y="4089.47" type="dead_end"/>