<?xml version="1.0" encoding="UTF-8"?>

<!-- generated on 2025-04-04 16:24:52 by Eclipse SUMO netconvert Version 1.19.0
<configuration xmlns:xsi="http://www.w3.org/2001/XMLSchema-instance" xsi:noNamespaceSchemaLocation="http://sumo.dlr.de/xsd/netconvertConfiguration.xsd">

    <input>
        <sumo-net-file value="la_verriere/la_verriere.net.xml"/>
    </input>

    <output>
        <plain-output-prefix value="la_verriere/la_verriere"/>
    </output>

    <processing>
        <geometry.min-radius.fix.railways value="false"/>
        <geometry.max-grade.fix value="false"/>
        <offset.disable-normalization value="true"/>
        <lefthand value="0"/>
    </processing>

    <tls_building>
        <tls.ignore-internal-junction-jam value="1"/>
    </tls_building>

    <junctions>
        <no-turnarounds value="true"/>
        <junctions.corner-detail value="5"/>
        <junctions.limit-turn-speed value="5.50"/>
        <rectangular-lane-cut value="0"/>
    </junctions>

    <pedestrian>
        <walkingareas value="0"/>
    </pedestrian>

</configuration>
-->

<connections version="1.16" xmlns:xsi="http://www.w3.org/2001/XMLSchema-instance" xsi:noNamespaceSchemaLocation="http://sumo.dlr.de/xsd/connections_file.xsd">
    <connection from="-1000760728" to="-26857383#0" fromLane="0" toLane="0"/>
    <connection from="-1000760728" to="-219570807" fromLane="0" toLane="0"/>
    <connection from="-1000760728" to="26857383#1" fromLane="0" toLane="0"/>
    <connection from="-1000760728" to="1000760728" fromLane="0" toLane="0"/>

    <connection from="-1000761007" to="183534998#0" fromLane="0" toLane="0"/>
    <connection from="-1000761007" to="-183534998#4" fromLane="0" toLane="0"/>
    <connection from="-1000761007" to="1000761007" fromLane="0" toLane="0"/>

    <connection from="-1000761008" to="78032218#1" fromLane="0" toLane="0"/>
    <connection from="-1000761008" to="-1000761007" fromLane="0" toLane="0"/>
    <connection from="-1000761008" to="-78032218#0" fromLane="0" toLane="0"/>
    <connection from="-1000761008" to="1000761008" fromLane="0" toLane="0"/>

    <connection from="-1000761009#0" to="-1000761009#2" fromLane="0" toLane="0"/>
    <connection from="-1000761009#0" to="-1000761008" fromLane="0" toLane="0"/>
    <connection from="-1000761009#0" to="1000761009#0" fromLane="0" toLane="0"/>

    <connection from="-1000761009#1" to="183534996" fromLane="0" toLane="0"/>
    <connection from="-1000761009#1" to="-1000761009#0" fromLane="0" toLane="0"/>
    <connection from="-1000761009#1" to="1000761009#1" fromLane="0" toLane="0"/>

    <connection from="-1000761009#2" to="-183534996" fromLane="0" toLane="0"/>
    <connection from="-1000761009#2" to="-1000761009#1" fromLane="0" toLane="0"/>
    <connection from="-1000761009#2" to="1000761009#2" fromLane="0" toLane="0"/>

    <connection from="-1007223957" to="39820194#2" fromLane="0" toLane="0"/>
    <connection from="-1007223957" to="1161795587" fromLane="0" toLane="0"/>
    <connection from="-1007223957" to="-39820194#0" fromLane="0" toLane="0"/>
    <connection from="-1007223957" to="1007223957" fromLane="0" toLane="0"/>

    <connection from="-1007224247" to="201329627#4" fromLane="0" toLane="0"/>
    <connection from="-1007224247" to="-201329627#3" fromLane="0" toLane="0"/>
    <connection from="-1007224247" to="1007224247" fromLane="0" toLane="0"/>

    <connection from="-103110828#0" to="27373242#2" fromLane="0" toLane="0"/>
    <connection from="-103110828#0" to="-27373242#1" fromLane="0" toLane="0"/>
    <connection from="-103110828#0" to="103110828#0" fromLane="0" toLane="0"/>

    <connection from="-103110828#1" to="-103110828#0" fromLane="0" toLane="0"/>

    <connection from="-103110828#2" to="-103110828#1" fromLane="0" toLane="0"/>

    <connection from="-1032984265" to="171996498#4" fromLane="0" toLane="0"/>
    <connection from="-1032984265" to="-171996498#3" fromLane="0" toLane="0"/>
    <connection from="-1032984265" to="1032984265" fromLane="0" toLane="0"/>

    <connection from="-1037403324" to="-372612750#3" fromLane="0" toLane="0"/>
    <connection from="-1037403324" to="372612750#4" fromLane="0" toLane="0"/>
    <connection from="-1037403324" to="1037403324" fromLane="0" toLane="0"/>

    <connection from="-1037792083#0" to="1037792083#0" fromLane="0" toLane="0"/>

    <connection from="-1037792083#1" to="371629047" fromLane="0" toLane="0"/>
    <connection from="-1037792083#1" to="-1037792083#0" fromLane="0" toLane="0"/>
    <connection from="-1037792083#1" to="1037792083#1" fromLane="0" toLane="0"/>

    <connection from="-1037792083#2" to="-1037792083#1" fromLane="0" toLane="0"/>
    <connection from="-1037792083#2" to="1037792084" fromLane="0" toLane="0"/>
    <connection from="-1037792083#2" to="1037792083#2" fromLane="0" toLane="0"/>

    <connection from="-1037792086" to="1037792085#0" fromLane="0" toLane="0"/>
    <connection from="-1037792086" to="1037792086" fromLane="0" toLane="0"/>

    <connection from="-104179619" to="104179619" fromLane="0" toLane="0"/>

    <connection from="-1051361436" to="1051361435#2" fromLane="0" toLane="0"/>
    <connection from="-1051361436" to="1051361436" fromLane="0" toLane="0"/>

    <connection from="-1051361437" to="1051361435#3" fromLane="0" toLane="0"/>
    <connection from="-1051361437" to="1051361437" fromLane="0" toLane="0"/>

    <connection from="-1051361438" to="1051361435#4" fromLane="0" toLane="0"/>
    <connection from="-1051361438" to="1051361438" fromLane="0" toLane="0"/>

    <connection from="-1051361442#1" to="525934688#1" fromLane="0" toLane="0"/>
    <connection from="-1051361442#1" to="25212039#3" fromLane="0" toLane="0"/>
    <connection from="-1051361442#1" to="-25212039#2" fromLane="0" toLane="0"/>
    <connection from="-1051361442#1" to="-525934688#0" fromLane="0" toLane="0"/>
    <connection from="-1051361442#1" to="1051361442#1" fromLane="0" toLane="0"/>

    <connection from="-1051361443" to="-1051361442#1" fromLane="0" toLane="0"/>
    <connection from="-1051361443" to="1051361445" fromLane="0" toLane="0"/>

    <connection from="-1051361445" to="1051361442#2" fromLane="0" toLane="0"/>
    <connection from="-1051361445" to="-1051361442#1" fromLane="0" toLane="0"/>
    <connection from="-1051361445" to="1051361445" fromLane="0" toLane="0"/>

    <connection from="-1051361451#0" to="-1051361452#1" fromLane="0" toLane="0"/>
    <connection from="-1051361451#0" to="1051361451#0" fromLane="0" toLane="0"/>

    <connection from="-1051361451#1" to="-1051361451#0" fromLane="0" toLane="0"/>
    <connection from="-1051361451#1" to="1051361453" fromLane="0" toLane="0"/>
    <connection from="-1051361451#1" to="1051361451#1" fromLane="0" toLane="0"/>

    <connection from="-1051361452#0" to="1051361448#1" fromLane="0" toLane="0"/>
    <connection from="-1051361452#0" to="1051361452#0" fromLane="0" toLane="0"/>

    <connection from="-1051361452#1" to="-1051361452#0" fromLane="0" toLane="0"/>
    <connection from="-1051361452#1" to="-1051361453" fromLane="0" toLane="0"/>
    <connection from="-1051361452#1" to="1051361452#1" fromLane="0" toLane="0"/>

    <connection from="-1051361453" to="1051361451#1" fromLane="0" toLane="0"/>
    <connection from="-1051361453" to="-1051361451#0" fromLane="0" toLane="0"/>
    <connection from="-1051361453" to="1051361453" fromLane="0" toLane="0"/>

    <connection from="-1053298897#0" to="1053298898#0" fromLane="0" toLane="0"/>

    <connection from="-1053298897#1" to="-1053298897#0" fromLane="0" toLane="0"/>
    <connection from="-1053298897#1" to="-93079262" fromLane="0" toLane="0"/>
    <connection from="-1053298897#1" to="1053298897#1" fromLane="0" toLane="0"/>

    <connection from="-1063257585" to="-180319171#3" fromLane="0" toLane="0"/>
    <connection from="-1063257585" to="365839757" fromLane="0" toLane="0"/>
    <connection from="-1063257585" to="-180319175" fromLane="0" toLane="0"/>
    <connection from="-1063257585" to="1063257585" fromLane="0" toLane="0"/>

    <connection from="-1063322158" to="-180319178#0" fromLane="0" toLane="0"/>
    <connection from="-1063322158" to="180319178#1" fromLane="0" toLane="1"/>
    <connection from="-1063322158" to="1063322158" fromLane="0" toLane="0"/>

    <connection from="-1063322162" to="1063322160" fromLane="0" toLane="0"/>
    <connection from="-1063322162" to="-180319178#2" fromLane="0" toLane="0"/>
    <connection from="-1063322162" to="-180319178#2" fromLane="1" toLane="1"/>
    <connection from="-1063322162" to="180319178#3" fromLane="1" toLane="1"/>

    <connection from="-106491235" to="306537937#7" fromLane="0" toLane="0"/>
    <connection from="-106491235" to="106491235" fromLane="0" toLane="0"/>

    <connection from="-1065949638" to="-174638165" fromLane="0" toLane="0"/>
    <connection from="-1065949638" to="23964821#0" fromLane="0" toLane="0"/>
    <connection from="-1065949638" to="1065949638" fromLane="0" toLane="0"/>

    <connection from="-1065960026#0" to="220710078" fromLane="0" toLane="0"/>
    <connection from="-1065960026#0" to="-160669694#3" fromLane="0" toLane="0"/>
    <connection from="-1065960026#0" to="-1065960028#1" fromLane="0" toLane="0"/>
    <connection from="-1065960026#0" to="1065960026#0" fromLane="0" toLane="0"/>

    <connection from="-1065960026#1" to="-1065960026#0" fromLane="0" toLane="0"/>
    <connection from="-1065960026#1" to="-346646309" fromLane="0" toLane="0"/>

    <connection from="-1065960027#1" to="72279285" fromLane="0" toLane="0"/>
    <connection from="-1065960027#1" to="1065960027#1" fromLane="0" toLane="0"/>

    <connection from="-1065960028#1" to="96198541#1" fromLane="0" toLane="0"/>
    <connection from="-1065960028#1" to="1106490477#2" fromLane="0" toLane="0"/>
    <connection from="-1065960028#1" to="-96198541#0" fromLane="0" toLane="0"/>
    <connection from="-1065960028#1" to="1065960028#1" fromLane="0" toLane="0"/>

    <connection from="-1080382710#0" to="-32227866" fromLane="0" toLane="0"/>
    <connection from="-1080382710#0" to="599425912" fromLane="0" toLane="0"/>

    <connection from="-1080382710#1" to="-345682702#1" fromLane="0" toLane="0"/>
    <connection from="-1080382710#1" to="-1080382710#0" fromLane="0" toLane="0"/>

    <connection from="-108039434#0" to="942719846#7" fromLane="0" toLane="0"/>
    <connection from="-108039434#0" to="-942719846#6" fromLane="0" toLane="0"/>
    <connection from="-108039434#0" to="108039434#0" fromLane="0" toLane="0"/>

    <connection from="-108039434#1" to="329935366" fromLane="0" toLane="0"/>
    <connection from="-108039434#1" to="-108039434#0" fromLane="0" toLane="0"/>
    <connection from="-108039434#1" to="108039434#1" fromLane="0" toLane="0"/>

    <connection from="-108039434#2" to="-108039434#1" fromLane="0" toLane="0"/>
    <connection from="-108039434#2" to="-478462430" fromLane="0" toLane="0"/>
    <connection from="-108039434#2" to="108039434#2" fromLane="0" toLane="0"/>

    <connection from="-108039434#3" to="-108039434#2" fromLane="0" toLane="0"/>
    <connection from="-108039434#3" to="108039434#3" fromLane="0" toLane="0"/>

    <connection from="-108039434#4" to="-108039434#3" fromLane="0" toLane="0"/>
    <connection from="-108039434#4" to="478462430" fromLane="0" toLane="0"/>
    <connection from="-108039434#4" to="108039434#4" fromLane="0" toLane="0"/>

    <connection from="-108039434#5" to="-941602736#1" fromLane="0" toLane="0"/>
    <connection from="-108039434#5" to="26736400#1" fromLane="0" toLane="0"/>
    <connection from="-108039434#5" to="-108039434#4" fromLane="0" toLane="0"/>
    <connection from="-108039434#5" to="108039434#5" fromLane="0" toLane="0"/>

    <connection from="-108039434#6" to="-329935533" fromLane="0" toLane="0"/>
    <connection from="-108039434#6" to="-108039434#5" fromLane="0" toLane="0"/>
    <connection from="-108039434#6" to="108039434#6" fromLane="0" toLane="0"/>

    <connection from="-108039437" to="175097390#8" fromLane="0" toLane="0"/>
    <connection from="-108039437" to="-175097390#7" fromLane="0" toLane="0"/>
    <connection from="-108039437" to="108039437" fromLane="0" toLane="0"/>

    <connection from="-108148273#0" to="201493036#2" fromLane="0" toLane="0"/>
    <connection from="-108148273#0" to="-201493036#1" fromLane="0" toLane="0"/>
    <connection from="-108148273#0" to="108148273#0" fromLane="0" toLane="0"/>

    <connection from="-108148273#1" to="-213210725" fromLane="0" toLane="0"/>
    <connection from="-108148273#1" to="-108148273#0" fromLane="0" toLane="0"/>
    <connection from="-108148273#1" to="108148273#1" fromLane="0" toLane="0"/>

    <connection from="-108148273#2" to="213210725" fromLane="0" toLane="0"/>
    <connection from="-108148273#2" to="-108148273#1" fromLane="0" toLane="0"/>
    <connection from="-108148273#2" to="108148273#2" fromLane="0" toLane="0"/>

    <connection from="-108148274#0" to="-201493036#2" fromLane="0" toLane="0"/>
    <connection from="-108148274#0" to="201493036#3" fromLane="0" toLane="0"/>
    <connection from="-108148274#0" to="108148274#0" fromLane="0" toLane="0"/>

    <connection from="-108148274#1" to="-108148275" fromLane="0" toLane="0"/>
    <connection from="-108148274#1" to="-108148274#0" fromLane="0" toLane="0"/>
    <connection from="-108148274#1" to="108148274#1" fromLane="0" toLane="0"/>

    <connection from="-108148275" to="-201493036#0" fromLane="0" toLane="0"/>
    <connection from="-108148275" to="201493036#1" fromLane="0" toLane="0"/>
    <connection from="-108148275" to="108148275" fromLane="0" toLane="0"/>

    <connection from="-108152128" to="59935630#1" fromLane="0" toLane="0"/>
    <connection from="-108152128" to="-59935630#0" fromLane="0" toLane="0"/>
    <connection from="-108152128" to="108152128" fromLane="0" toLane="0"/>

    <connection from="-1084064220" to="1084064223#3" fromLane="0" toLane="0"/>
    <connection from="-1084064220" to="-1084064223#2" fromLane="0" toLane="0"/>
    <connection from="-1084064220" to="1084064220" fromLane="0" toLane="0"/>

    <connection from="-1084064221" to="-1154212415#1" fromLane="0" toLane="0"/>
    <connection from="-1084064221" to="1154212415#2" fromLane="0" toLane="0"/>
    <connection from="-1084064221" to="1084064221" fromLane="0" toLane="0"/>

    <connection from="-1084064222#0" to="-1084064221" fromLane="0" toLane="0"/>
    <connection from="-1084064222#0" to="1084064223#0" fromLane="0" toLane="0"/>
    <connection from="-1084064222#0" to="-175453509#6" fromLane="0" toLane="0"/>
    <connection from="-1084064222#0" to="1084064222#0" fromLane="0" toLane="0"/>

    <connection from="-1084064222#1" to="-1084064222#2" fromLane="0" toLane="0"/>
    <connection from="-1084064222#1" to="-1084064222#0" fromLane="0" toLane="0"/>
    <connection from="-1084064222#1" to="1084064222#1" fromLane="0" toLane="0"/>

    <connection from="-1084064222#2" to="-1084064222#1" fromLane="0" toLane="0"/>

    <connection from="-1084064223#0" to="-175453509#6" fromLane="0" toLane="0"/>
    <connection from="-1084064223#0" to="1084064222#0" fromLane="0" toLane="0"/>
    <connection from="-1084064223#0" to="-1084064221" fromLane="0" toLane="0"/>
    <connection from="-1084064223#0" to="1084064223#0" fromLane="0" toLane="0"/>

    <connection from="-1084064223#1" to="-1084064223#3" fromLane="0" toLane="0"/>
    <connection from="-1084064223#1" to="-1084064223#0" fromLane="0" toLane="0"/>
    <connection from="-1084064223#1" to="1084064223#1" fromLane="0" toLane="0"/>

    <connection from="-1084064223#2" to="-1084064223#1" fromLane="0" toLane="0"/>
    <connection from="-1084064223#2" to="175453513" fromLane="0" toLane="0"/>
    <connection from="-1084064223#2" to="1084064223#2" fromLane="0" toLane="0"/>

    <connection from="-1084064223#3" to="-1084064223#2" fromLane="0" toLane="0"/>
    <connection from="-1084064223#3" to="1084064220" fromLane="0" toLane="0"/>
    <connection from="-1084064223#3" to="1084064223#3" fromLane="0" toLane="0"/>

    <connection from="-1084064225" to="175453509#6" fromLane="0" toLane="0"/>
    <connection from="-1084064225" to="-83055296#0" fromLane="0" toLane="0"/>
    <connection from="-1084064225" to="-1084064220" fromLane="0" toLane="0"/>
    <connection from="-1084064225" to="-175453509#4" fromLane="0" toLane="0"/>
    <connection from="-1084064225" to="83055296#2" fromLane="0" toLane="0"/>

    <connection from="-1084064237#0" to="74169855#0" fromLane="0" toLane="0"/>
    <connection from="-1084064237#0" to="-175453513" fromLane="0" toLane="0"/>
    <connection from="-1084064237#0" to="-1154212415#2" fromLane="0" toLane="0"/>
    <connection from="-1084064237#0" to="1084064237#0" fromLane="0" toLane="0"/>

    <connection from="-1084064237#1" to="372612750#1" fromLane="0" toLane="0"/>
    <connection from="-1084064237#1" to="-372612750#0" fromLane="0" toLane="0"/>
    <connection from="-1084064237#1" to="-74169855#0" fromLane="0" toLane="0"/>
    <connection from="-1084064237#1" to="-1084064237#0" fromLane="0" toLane="0"/>
    <connection from="-1084064237#1" to="1084064237#1" fromLane="0" toLane="0"/>

    <connection from="-1084064237#3" to="26572824#1" fromLane="0" toLane="0"/>
    <connection from="-1084064237#3" to="-26572824#0" fromLane="0" toLane="0"/>
    <connection from="-1084064237#3" to="-1084064237#1" fromLane="0" toLane="0"/>
    <connection from="-1084064237#3" to="-175451801#0" fromLane="0" toLane="0"/>
    <connection from="-1084064237#3" to="-229831992#2" fromLane="0" toLane="0"/>
    <connection from="-1084064237#3" to="1084064237#3" fromLane="0" toLane="0"/>

    <connection from="-1086002944" to="1086002944" fromLane="0" toLane="0"/>

    <connection from="-1086043608" to="1086043609#1" fromLane="0" toLane="0"/>
    <connection from="-1086043608" to="-1086043609#0" fromLane="0" toLane="0"/>
    <connection from="-1086043608" to="1086043608" fromLane="0" toLane="0"/>

    <connection from="-1086043609#0" to="1086043609#0" fromLane="0" toLane="0"/>

    <connection from="-1086043609#1" to="-1086043609#0" fromLane="0" toLane="0"/>
    <connection from="-1086043609#1" to="1086043608" fromLane="0" toLane="0"/>
    <connection from="-1086043609#1" to="1086043609#1" fromLane="0" toLane="0"/>

    <connection from="-1087561817#0" to="28518600#1" fromLane="0" toLane="0" visibility="9.00"/>

    <connection from="-1087561817#1" to="-1087561817#0" fromLane="0" toLane="0"/>

    <connection from="-1087561817#10" to="-52873242" fromLane="0" toLane="0"/>
    <connection from="-1087561817#10" to="-1087561817#9" fromLane="0" toLane="0"/>

    <connection from="-1087561817#11" to="-1087561817#10" fromLane="0" toLane="0"/>

    <connection from="-1087561817#12" to="-52873245" fromLane="0" toLane="0"/>
    <connection from="-1087561817#12" to="-1087561817#11" fromLane="0" toLane="0"/>

    <connection from="-1087561817#13" to="-1087561817#12" fromLane="0" toLane="0"/>

    <connection from="-1087561817#14" to="-52873255#7" fromLane="0" toLane="0"/>
    <connection from="-1087561817#14" to="-1087561817#13" fromLane="0" toLane="0"/>
    <connection from="-1087561817#14" to="1087561817#14" fromLane="0" toLane="0"/>

    <connection from="-1087561817#15" to="1287995603" fromLane="0" toLane="0"/>
    <connection from="-1087561817#15" to="-1087561817#14" fromLane="0" toLane="0"/>

    <connection from="-1087561817#2" to="-1087561817#1" fromLane="0" toLane="0"/>

    <connection from="-1087561817#3" to="594954907#0" fromLane="0" toLane="0"/>
    <connection from="-1087561817#3" to="-1087561817#2" fromLane="0" toLane="0"/>
    <connection from="-1087561817#3" to="1087561817#3" fromLane="0" toLane="0"/>

    <connection from="-1087561817#4" to="-527528951#4" fromLane="0" toLane="0"/>
    <connection from="-1087561817#4" to="-177639954#2" fromLane="0" toLane="0"/>
    <connection from="-1087561817#4" to="-1087561817#3" fromLane="0" toLane="0"/>
    <connection from="-1087561817#4" to="526503753#0" fromLane="0" toLane="0"/>
    <connection from="-1087561817#4" to="177639954#5" fromLane="0" toLane="0"/>

    <connection from="-1087561817#6" to="-30542448#5" fromLane="0" toLane="0"/>
    <connection from="-1087561817#6" to="-1087561817#4" fromLane="0" toLane="0"/>
    <connection from="-1087561817#6" to="1087561817#6" fromLane="0" toLane="0"/>

    <connection from="-1087561817#7" to="-1087561817#6" fromLane="0" toLane="0"/>
    <connection from="-1087561817#7" to="52873232#0" fromLane="0" toLane="0"/>
    <connection from="-1087561817#7" to="1087561817#7" fromLane="0" toLane="0"/>

    <connection from="-1087561817#8" to="-1087561817#7" fromLane="0" toLane="0"/>
    <connection from="-1087561817#8" to="1287995602" fromLane="0" toLane="0"/>

    <connection from="-1087561817#9" to="-52873243#1" fromLane="0" toLane="0"/>
    <connection from="-1087561817#9" to="-1087561817#8" fromLane="0" toLane="0"/>
    <connection from="-1087561817#9" to="1087561817#9" fromLane="0" toLane="0"/>

    <connection from="-1087561818#0" to="1087561819" fromLane="0" toLane="0"/>
    <connection from="-1087561818#0" to="-28770524#5" fromLane="0" toLane="0"/>
    <connection from="-1087561818#0" to="1087561818#0" fromLane="0" toLane="0"/>

    <connection from="-1087561818#1" to="-1087561818#0" fromLane="0" toLane="0"/>

    <connection from="-1087561819" to="-28770524#5" fromLane="0" toLane="0"/>
    <connection from="-1087561819" to="1087561818#0" fromLane="0" toLane="0"/>
    <connection from="-1087561819" to="1087561819" fromLane="0" toLane="0"/>

    <connection from="-1088494886#0" to="-79620533#4" fromLane="0" toLane="0"/>
    <connection from="-1088494886#0" to="79620533#5" fromLane="0" toLane="0"/>
    <connection from="-1088494886#0" to="1088494886#0" fromLane="0" toLane="0"/>

    <connection from="-1088494886#1" to="-1088494886#0" fromLane="0" toLane="0"/>
    <connection from="-1088494886#1" to="1088494887" fromLane="0" toLane="0"/>
    <connection from="-1088494886#1" to="1088494886#1" fromLane="0" toLane="0"/>

    <connection from="-1088494886#2" to="-1088494886#1" fromLane="0" toLane="0"/>
    <connection from="-1088494886#2" to="1088494886#2" fromLane="0" toLane="0"/>

    <connection from="-1088494886#3" to="-1088494886#2" fromLane="0" toLane="0"/>
    <connection from="-1088494886#3" to="1363823100" fromLane="0" toLane="0"/>
    <connection from="-1088494886#3" to="1088494886#3" fromLane="0" toLane="0"/>

    <connection from="-1088494886#4" to="-1088494886#3" fromLane="0" toLane="0"/>
    <connection from="-1088494886#4" to="1088494886#4" fromLane="0" toLane="0"/>

    <connection from="-1088494887" to="1088494886#1" fromLane="0" toLane="0"/>
    <connection from="-1088494887" to="-1088494886#0" fromLane="0" toLane="0"/>
    <connection from="-1088494887" to="1088494887" fromLane="0" toLane="0"/>

    <connection from="-1088494900#0" to="307713776#8" fromLane="0" toLane="0"/>
    <connection from="-1088494900#0" to="1088494903" fromLane="0" toLane="0"/>
    <connection from="-1088494900#0" to="-307713776#7" fromLane="0" toLane="0"/>
    <connection from="-1088494900#0" to="1088494900#0" fromLane="0" toLane="0"/>

    <connection from="-1088494900#2" to="-1088494900#0" fromLane="0" toLane="0"/>
    <connection from="-1088494900#2" to="1112231749#3" fromLane="0" toLane="0"/>
    <connection from="-1088494900#2" to="1088494900#2" fromLane="0" toLane="0"/>

    <connection from="-1088494903" to="-307713776#7" fromLane="0" toLane="0"/>
    <connection from="-1088494903" to="1088494900#0" fromLane="0" toLane="0"/>
    <connection from="-1088494903" to="307713776#8" fromLane="0" toLane="0"/>
    <connection from="-1088494903" to="1088494903" fromLane="0" toLane="0"/>

    <connection from="-1088494913" to="1088494913" fromLane="0" toLane="0"/>

    <connection from="-1088494924" to="-1112231746#1" fromLane="0" toLane="0"/>
    <connection from="-1088494924" to="1112231746#2" fromLane="0" toLane="0"/>
    <connection from="-1088494924" to="1088494924" fromLane="0" toLane="0"/>

    <connection from="-1088494925#0" to="1088494925#0" fromLane="0" toLane="0"/>

    <connection from="-1088494925#1" to="-1088494925#0" fromLane="0" toLane="0"/>
    <connection from="-1088494925#1" to="-1088494924" fromLane="0" toLane="0"/>
    <connection from="-1088494925#1" to="1088494925#1" fromLane="0" toLane="0"/>

    <connection from="-1088571783" to="1088571783" fromLane="0" toLane="0"/>

    <connection from="-1088571785" to="-904667950#2" fromLane="0" toLane="0"/>
    <connection from="-1088571785" to="904667950#3" fromLane="0" toLane="0"/>
    <connection from="-1088571785" to="1088571785" fromLane="0" toLane="0"/>

    <connection from="-109239633" to="109239633" fromLane="0" toLane="0"/>

    <connection from="-109239638#0" to="57837516#2" fromLane="0" toLane="0"/>
    <connection from="-109239638#0" to="-120195500#1" fromLane="0" toLane="0"/>
    <connection from="-109239638#0" to="-57837516#1" fromLane="0" toLane="0"/>
    <connection from="-109239638#0" to="120195500#2" fromLane="0" toLane="0"/>

    <connection from="-109239638#1" to="-38614145#1" fromLane="0" toLane="0"/>
    <connection from="-109239638#1" to="-109239638#0" fromLane="0" toLane="0"/>
    <connection from="-109239638#1" to="38614145#2" fromLane="0" toLane="0"/>
    <connection from="-109239638#1" to="109239638#1" fromLane="0" toLane="0"/>

    <connection from="-109239638#2" to="120195501#2" fromLane="0" toLane="0"/>
    <connection from="-109239638#2" to="-109239638#1" fromLane="0" toLane="0"/>
    <connection from="-109239638#2" to="-120195501#1" fromLane="0" toLane="0"/>
    <connection from="-109239638#2" to="109239638#2" fromLane="0" toLane="0"/>

    <connection from="-109239638#3" to="-120195514#8" fromLane="0" toLane="0"/>
    <connection from="-109239638#3" to="120195507" fromLane="0" toLane="0"/>
    <connection from="-109239638#3" to="-109239638#2" fromLane="0" toLane="0"/>
    <connection from="-109239638#3" to="120195514#9" fromLane="0" toLane="0"/>
    <connection from="-109239638#3" to="109239638#3" fromLane="0" toLane="0"/>

    <connection from="-109239638#4" to="-1210620301" fromLane="0" toLane="0"/>
    <connection from="-109239638#4" to="-109239638#3" fromLane="0" toLane="0"/>
    <connection from="-109239638#4" to="109239638#4" fromLane="0" toLane="0"/>

    <connection from="-109239638#5" to="-185411061#1" fromLane="0" toLane="0"/>
    <connection from="-109239638#5" to="-109239638#4" fromLane="0" toLane="0"/>
    <connection from="-109239638#5" to="185411061#2" fromLane="0" toLane="0"/>
    <connection from="-109239638#5" to="109239638#5" fromLane="0" toLane="0"/>

    <connection from="-109239638#6" to="1106543033#1" fromLane="0" toLane="0"/>
    <connection from="-109239638#6" to="-109239638#5" fromLane="0" toLane="0"/>
    <connection from="-109239638#6" to="-1106543033#0" fromLane="0" toLane="0"/>
    <connection from="-109239638#6" to="109239638#6" fromLane="0" toLane="0"/>

    <connection from="-109239638#7" to="68445661#2" fromLane="0" toLane="0"/>
    <connection from="-109239638#7" to="-109239638#6" fromLane="0" toLane="0"/>
    <connection from="-109239638#7" to="-68445661#1" fromLane="0" toLane="0"/>
    <connection from="-109239638#7" to="109239638#7" fromLane="0" toLane="0"/>

    <connection from="-109239638#8" to="-175451270" fromLane="0" toLane="0"/>
    <connection from="-109239638#8" to="-109239638#7" fromLane="0" toLane="0"/>
    <connection from="-109239638#8" to="109239638#8" fromLane="0" toLane="0"/>

    <connection from="-1094535933" to="1094535935" fromLane="0" toLane="0"/>
    <connection from="-1094535933" to="1094535931#1" fromLane="0" toLane="0"/>
    <connection from="-1094535933" to="1094535933" fromLane="0" toLane="0"/>

    <connection from="-1094535935" to="1094535931#1" fromLane="0" toLane="0"/>
    <connection from="-1094535935" to="1094535933" fromLane="0" toLane="0"/>
    <connection from="-1094535935" to="1094535935" fromLane="0" toLane="0"/>

    <connection from="-109470888#0" to="109470882" fromLane="0" toLane="0"/>
    <connection from="-109470888#0" to="109470882" fromLane="0" toLane="1"/>

    <connection from="-109470888#1" to="-109470888#0" fromLane="0" toLane="0"/>
    <connection from="-109470888#1" to="1168484711#0" fromLane="0" toLane="0"/>

    <connection from="-109470888#2" to="-109470888#1" fromLane="0" toLane="0"/>

    <connection from="-109470888#3" to="109470891" fromLane="0" toLane="0"/>
    <connection from="-109470888#3" to="-109470888#2" fromLane="0" toLane="0"/>

    <connection from="-109470892" to="-109696392#0" fromLane="0" toLane="0"/>
    <connection from="-109470892" to="109696392#1" fromLane="0" toLane="0"/>
    <connection from="-109470892" to="109470892" fromLane="0" toLane="0"/>

    <connection from="-109470894#0" to="-201329629#0" fromLane="0" toLane="0"/>
    <connection from="-109470894#0" to="201329629#1" fromLane="0" toLane="0"/>
    <connection from="-109470894#0" to="109470894#0" fromLane="0" toLane="0"/>

    <connection from="-109529874#0" to="22674519#1" fromLane="0" toLane="0"/>
    <connection from="-109529874#0" to="-22674519#0" fromLane="0" toLane="0"/>
    <connection from="-109529874#0" to="109529874#0" fromLane="0" toLane="0"/>

    <connection from="-109529874#1" to="-109529874#0" fromLane="0" toLane="0"/>

    <connection from="-109529874#2" to="-109529874#1" fromLane="0" toLane="0"/>

    <connection from="-109584648" to="109584651#8" fromLane="0" toLane="0"/>
    <connection from="-109584648" to="174488962" fromLane="0" toLane="0"/>
    <connection from="-109584648" to="-109584651#6" fromLane="0" toLane="0"/>
    <connection from="-109584648" to="109584648" fromLane="0" toLane="0"/>

    <connection from="-109584651#0" to="22674581#1" fromLane="0" toLane="0"/>
    <connection from="-109584651#0" to="-22674581#0" fromLane="0" toLane="0"/>
    <connection from="-109584651#0" to="109584651#0" fromLane="0" toLane="0"/>

    <connection from="-109584651#1" to="-120108622#1" fromLane="0" toLane="0"/>