<?xml version="1.0" encoding="UTF-8"?>

<!-- generated on 2025-04-04 16:24:30 by Eclipse SUMO netconvert Version 1.19.0
<configuration xmlns:xsi="http://www.w3.org/2001/XMLSchema-instance" xsi:noNamespaceSchemaLocation="http://sumo.dlr.de/xsd/netconvertConfiguration.xsd">

    <input>
        <sumo-net-file value="melun/melun.net.xml"/>
    </input>

    <output>
        <plain-output-prefix value="melun/melun"/>
    </output>

    <processing>
        <geometry.min-radius.fix.railways value="false"/>
        <geometry.max-grade.fix value="false"/>
        <offset.disable-normalization value="true"/>
        <lefthand value="0"/>
    </processing>

    <tls_building>
        <tls.ignore-internal-junction-jam value="1"/>
    </tls_building>

    <junctions>
        <no-turnarounds value="true"/>
        <junctions.corner-detail value="5"/>
        <junctions.limit-turn-speed value="5.50"/>
        <rectangular-lane-cut value="0"/>
    </junctions>

    <pedestrian>
        <walkingareas value="0"/>
    </pedestrian>

</configuration>
-->

<connections version="1.16" xmlns:xsi="http://www.w3.org/2001/XMLSchema-instance" xsi:noNamespaceSchemaLocation="http://sumo.dlr.de/xsd/connections_file.xsd">
    <connection from="-1000499856#0" to="52867644#0" fromLane="0" toLane="0"/>
    <connection from="-1000499856#0" to="52839050#0" fromLane="0" toLane="0"/>
    <connection from="-1000499856#0" to="1000499856#0" fromLane="0" toLane="0"/>

    <connection from="-1000499856#1" to="-1000499856#2" fromLane="0" toLane="0"/>
    <connection from="-1000499856#1" to="-1000499856#0" fromLane="0" toLane="0"/>
    <connection from="-1000499856#1" to="1000499856#1" fromLane="0" toLane="0"/>

    <connection from="-1000499856#2" to="-1000499856#1" fromLane="0" toLane="0"/>
    <connection from="-1000499856#2" to="-1077549199#1" fromLane="0" toLane="0"/>
    <connection from="-1000499856#2" to="1000499856#2" fromLane="0" toLane="0"/>

    <connection from="-1000499858#0" to="1000499858#0" fromLane="0" toLane="0"/>

    <connection from="-1000499858#1" to="-1000499858#0" fromLane="0" toLane="0"/>
    <connection from="-1000499858#1" to="1000499858#1" fromLane="0" toLane="0"/>

    <connection from="-1000499858#2" to="-1000499858#1" fromLane="0" toLane="0"/>
    <connection from="-1000499858#2" to="1000499858#2" fromLane="0" toLane="0"/>

    <connection from="-1000499859#0" to="1000499859#0" fromLane="0" toLane="0"/>

    <connection from="-1000499859#1" to="-1000499859#0" fromLane="0" toLane="0"/>
    <connection from="-1000499859#1" to="1000499859#1" fromLane="0" toLane="0"/>

    <connection from="-1000499859#2" to="-232566313#0" fromLane="0" toLane="0"/>
    <connection from="-1000499859#2" to="-1000499859#1" fromLane="0" toLane="0"/>
    <connection from="-1000499859#2" to="232566313#1" fromLane="0" toLane="0"/>
    <connection from="-1000499859#2" to="1000499859#2" fromLane="0" toLane="0"/>

    <connection from="-1000499859#3" to="232566308#7" fromLane="0" toLane="0"/>
    <connection from="-1000499859#3" to="-52867646#2" fromLane="0" toLane="0"/>
    <connection from="-1000499859#3" to="-232566308#5" fromLane="0" toLane="0"/>
    <connection from="-1000499859#3" to="-1000499859#2" fromLane="0" toLane="0"/>
    <connection from="-1000499859#3" to="1000499871#3" fromLane="0" toLane="0"/>
    <connection from="-1000499859#3" to="232566311#2" fromLane="0" toLane="0"/>
    <connection from="-1000499859#3" to="1000499859#3" fromLane="0" toLane="0"/>

    <connection from="-1000499866" to="52867645#6" fromLane="0" toLane="0"/>
    <connection from="-1000499866" to="-52867645#5" fromLane="0" toLane="0"/>
    <connection from="-1000499866" to="1000499866" fromLane="0" toLane="0"/>

    <connection from="-1000499889#0" to="434929824" fromLane="0" toLane="0"/>
    <connection from="-1000499889#0" to="1000499890" fromLane="0" toLane="0"/>
    <connection from="-1000499889#0" to="-1000499889#1" fromLane="0" toLane="0"/>
    <connection from="-1000499889#0" to="1000499889#4" fromLane="0" toLane="0"/>

    <connection from="-1000499889#1" to="-434929825" fromLane="0" toLane="0"/>
    <connection from="-1000499889#1" to="-1000499889#0" fromLane="0" toLane="0"/>
    <connection from="-1000499889#1" to="1000499889#1" fromLane="0" toLane="0"/>

    <connection from="-1000499890" to="-1000499889#1" fromLane="0" toLane="0"/>
    <connection from="-1000499890" to="1000499889#4" fromLane="0" toLane="0"/>
    <connection from="-1000499890" to="434929824" fromLane="0" toLane="0"/>
    <connection from="-1000499890" to="1000499890" fromLane="0" toLane="0"/>

    <connection from="-1000499891#0" to="-1000499891#3" fromLane="0" toLane="0"/>
    <connection from="-1000499891#0" to="133913851#0" fromLane="0" toLane="0"/>
    <connection from="-1000499891#0" to="1000499891#0" fromLane="0" toLane="0"/>

    <connection from="-1000499891#1" to="-1000499891#0" fromLane="0" toLane="0"/>
    <connection from="-1000499891#1" to="1000499891#1" fromLane="0" toLane="0"/>

    <connection from="-1000499891#2" to="-1000499891#1" fromLane="0" toLane="0"/>
    <connection from="-1000499891#2" to="1000499891#2" fromLane="0" toLane="0"/>

    <connection from="-1000499891#3" to="-1000499891#2" fromLane="0" toLane="0"/>
    <connection from="-1000499891#3" to="1076679714" fromLane="0" toLane="0"/>
    <connection from="-1000499891#3" to="1000499891#3" fromLane="0" toLane="0"/>

    <connection from="-1000499898#1" to="52867979#1" fromLane="0" toLane="0"/>
    <connection from="-1000499898#1" to="-52867981#8" fromLane="0" toLane="0"/>
    <connection from="-1000499898#1" to="52867981#11" fromLane="0" toLane="0"/>
    <connection from="-1000499898#1" to="1000499898#1" fromLane="0" toLane="0"/>

    <connection from="-1000499898#2" to="1076686606" fromLane="0" toLane="0"/>
    <connection from="-1000499898#2" to="-1000499898#1" fromLane="0" toLane="0"/>

    <connection from="-1000499898#3" to="-1000499898#2" fromLane="0" toLane="0"/>

    <connection from="-1000499898#4" to="-1000499898#3" fromLane="0" toLane="0"/>

    <connection from="-1000499898#5" to="-1000499898#4" fromLane="0" toLane="0"/>

    <connection from="-1000499904#0" to="-1230821482" fromLane="0" toLane="0"/>
    <connection from="-1000499904#0" to="52867981#4" fromLane="0" toLane="0"/>
    <connection from="-1000499904#0" to="-497910610#2" fromLane="0" toLane="0"/>
    <connection from="-1000499904#0" to="-1230821480#0" fromLane="0" toLane="0"/>
    <connection from="-1000499904#0" to="-293272286#1" fromLane="0" toLane="0"/>
    <connection from="-1000499904#0" to="-52867981#0" fromLane="0" toLane="0"/>
    <connection from="-1000499904#0" to="52867957#1" fromLane="0" toLane="0"/>
    <connection from="-1000499904#0" to="44221234#1" fromLane="0" toLane="0"/>
    <connection from="-1000499904#0" to="1000499903" fromLane="0" toLane="0"/>

    <connection from="-1000499904#1" to="-1230821486#2" fromLane="0" toLane="0"/>
    <connection from="-1000499904#1" to="1230821486#3" fromLane="0" toLane="0"/>
    <connection from="-1000499904#1" to="-1000499904#0" fromLane="0" toLane="0"/>
    <connection from="-1000499904#1" to="1000499904#1" fromLane="0" toLane="0"/>

    <connection from="-1001707186#0" to="-170594899#3" fromLane="0" toLane="0"/>
    <connection from="-1001707186#0" to="370683956#0" fromLane="0" toLane="0"/>
    <connection from="-1001707186#0" to="-133909753#2" fromLane="0" toLane="0"/>
    <connection from="-1001707186#0" to="1001707186#0" fromLane="0" toLane="0"/>

    <connection from="-1001707186#2" to="-1001707186#0" fromLane="0" toLane="0"/>
    <connection from="-1001707186#2" to="1076620600#0" fromLane="0" toLane="0"/>
    <connection from="-1001707186#2" to="1001707186#2" fromLane="0" toLane="0"/>

    <connection from="-1002387428" to="434912067#1" fromLane="0" toLane="0"/>
    <connection from="-1002387428" to="-434912067#0" fromLane="0" toLane="0"/>
    <connection from="-1002387428" to="1002387428" fromLane="0" toLane="0"/>

    <connection from="-1002387440" to="1002387440" fromLane="0" toLane="0"/>

    <connection from="-1002387441#0" to="948515099#2" fromLane="0" toLane="0"/>
    <connection from="-1002387441#0" to="-948515099#1" fromLane="0" toLane="0"/>
    <connection from="-1002387441#0" to="1002387441#0" fromLane="0" toLane="0"/>

    <connection from="-1002387441#1" to="-1002387441#0" fromLane="0" toLane="0"/>
    <connection from="-1002387441#1" to="1002387441#1" fromLane="0" toLane="0"/>

    <connection from="-1002387441#2" to="-1002387441#1" fromLane="0" toLane="0"/>
    <connection from="-1002387441#2" to="1002387441#2" fromLane="0" toLane="0"/>

    <connection from="-1002387441#3" to="-1002387441#2" fromLane="0" toLane="0"/>
    <connection from="-1002387441#3" to="1002387441#3" fromLane="0" toLane="0"/>

    <connection from="-1002802514" to="456228658#1" fromLane="0" toLane="0"/>
    <connection from="-1002802514" to="-456228658#0" fromLane="0" toLane="0"/>
    <connection from="-1002802514" to="1002802514" fromLane="0" toLane="0"/>

    <connection from="-1002805185" to="-264182188#6" fromLane="0" toLane="0"/>
    <connection from="-1002805185" to="123654654#0" fromLane="0" toLane="0"/>
    <connection from="-1002805185" to="52879826" fromLane="0" toLane="0"/>

    <connection from="-1002806971" to="1002806971" fromLane="0" toLane="0"/>

    <connection from="-1006837145" to="23050814#0" fromLane="0" toLane="0"/>
    <connection from="-1006837145" to="464784317" fromLane="0" toLane="0"/>
    <connection from="-1006837145" to="1006837145" fromLane="0" toLane="0"/>

    <connection from="-1006837146#0" to="23050864" fromLane="0" toLane="0"/>
    <connection from="-1006837146#0" to="-658128170" fromLane="0" toLane="0"/>

    <connection from="-1006837146#1" to="-1006837146#0" fromLane="0" toLane="0"/>
    <connection from="-1006837146#1" to="53050945#0" fromLane="0" toLane="0"/>
    <connection from="-1006837146#1" to="1006837146#1" fromLane="0" toLane="0"/>

    <connection from="-1006837146#2" to="-1006837146#1" fromLane="0" toLane="0"/>
    <connection from="-1006837146#2" to="-53050945#5" fromLane="0" toLane="0"/>
    <connection from="-1006837146#2" to="1006837146#2" fromLane="0" toLane="0"/>

    <connection from="-1006837147" to="754712133" fromLane="0" toLane="0"/>
    <connection from="-1006837147" to="1006837147" fromLane="0" toLane="0"/>

    <connection from="-1007389992#1" to="170611081#2" fromLane="0" toLane="0"/>
    <connection from="-1007389992#1" to="-170611081#1" fromLane="0" toLane="0"/>
    <connection from="-1007389992#1" to="1007389992#1" fromLane="0" toLane="0"/>

    <connection from="-1007389992#2" to="1076808239#0" fromLane="0" toLane="0"/>
    <connection from="-1007389992#2" to="-1007389992#1" fromLane="0" toLane="0"/>
    <connection from="-1007389992#2" to="1007389992#2" fromLane="0" toLane="0"/>

    <connection from="-1007389992#3" to="-1076809096#3" fromLane="0" toLane="0"/>
    <connection from="-1007389992#3" to="-1007389992#2" fromLane="0" toLane="0"/>
    <connection from="-1007389992#3" to="1007389992#3" fromLane="0" toLane="0"/>

    <connection from="-1007389992#4" to="-1007389992#3" fromLane="0" toLane="0"/>
    <connection from="-1007389992#4" to="1007389992#4" fromLane="0" toLane="0"/>

    <connection from="-1007389992#5" to="-1007389992#4" fromLane="0" toLane="0"/>
    <connection from="-1007389992#5" to="-1057111251" fromLane="0" toLane="0"/>
    <connection from="-1007389992#5" to="1007389992#5" fromLane="0" toLane="0"/>

    <connection from="-1007389992#6" to="-1007389992#5" fromLane="0" toLane="0"/>
    <connection from="-1007389992#6" to="1007389992#6" fromLane="0" toLane="0"/>

    <connection from="-1007389992#7" to="-1007389992#6" fromLane="0" toLane="0"/>
    <connection from="-1007389992#7" to="1007389992#7" fromLane="0" toLane="0"/>

    <connection from="-1015332433" to="438236938" fromLane="0" toLane="0" speed="0.10"/>

    <connection from="-1015332441" to="123896956" fromLane="0" toLane="0" speed="0.10"/>

    <connection from="-1015928358#0" to="-216412054#0" fromLane="0" toLane="0"/>
    <connection from="-1015928358#0" to="216412054#1" fromLane="0" toLane="0"/>
    <connection from="-1015928358#0" to="1015928358#0" fromLane="0" toLane="0"/>

    <connection from="-1015928358#1" to="-1015928358#0" fromLane="0" toLane="0"/>
    <connection from="-1015928358#1" to="1015928361" fromLane="0" toLane="0"/>
    <connection from="-1015928358#1" to="1015928358#1" fromLane="0" toLane="0"/>

    <connection from="-1015928358#2" to="-1015928360" fromLane="0" toLane="0"/>
    <connection from="-1015928358#2" to="-1015928358#1" fromLane="0" toLane="0"/>
    <connection from="-1015928358#2" to="1015928358#2" fromLane="0" toLane="0"/>

    <connection from="-1015928359#0" to="1015928359#0" fromLane="0" toLane="0"/>

    <connection from="-1015928359#1" to="-1015928359#0" fromLane="0" toLane="0"/>
    <connection from="-1015928359#1" to="1015928360" fromLane="0" toLane="0"/>
    <connection from="-1015928359#1" to="1015928359#1" fromLane="0" toLane="0"/>

    <connection from="-1015928360" to="1015928359#1" fromLane="0" toLane="0"/>
    <connection from="-1015928360" to="-1015928359#0" fromLane="0" toLane="0"/>
    <connection from="-1015928360" to="1015928360" fromLane="0" toLane="0"/>

    <connection from="-1015928361" to="1015928358#1" fromLane="0" toLane="0"/>
    <connection from="-1015928361" to="-1015928358#0" fromLane="0" toLane="0"/>
    <connection from="-1015928361" to="1015928361" fromLane="0" toLane="0"/>

    <connection from="-1015928368#0" to="216412056#1" fromLane="0" toLane="0"/>
    <connection from="-1015928368#0" to="-216412056#0" fromLane="0" toLane="0"/>
    <connection from="-1015928368#0" to="1015928368#0" fromLane="0" toLane="0"/>

    <connection from="-1015928368#1" to="1015928369" fromLane="0" toLane="0"/>
    <connection from="-1015928368#1" to="-1015928368#0" fromLane="0" toLane="0"/>
    <connection from="-1015928368#1" to="1015928368#1" fromLane="0" toLane="0"/>

    <connection from="-1015928369" to="-1015928368#0" fromLane="0" toLane="0"/>
    <connection from="-1015928369" to="1015928368#1" fromLane="0" toLane="0"/>
    <connection from="-1015928369" to="1015928369" fromLane="0" toLane="0"/>

    <connection from="-1015928370#0" to="1015928370#0" fromLane="0" toLane="0"/>

    <connection from="-1015928370#1" to="-1015928369" fromLane="0" toLane="0"/>
    <connection from="-1015928370#1" to="-1015928370#0" fromLane="0" toLane="0"/>
    <connection from="-1015928370#1" to="1015928370#1" fromLane="0" toLane="0"/>

    <connection from="-1015928374#0" to="216412053#1" fromLane="0" toLane="0"/>
    <connection from="-1015928374#0" to="-216412053#0" fromLane="0" toLane="0"/>
    <connection from="-1015928374#0" to="1015928374#0" fromLane="0" toLane="0"/>

    <connection from="-1015928374#1" to="1015928375" fromLane="0" toLane="0"/>
    <connection from="-1015928374#1" to="-1015928374#0" fromLane="0" toLane="0"/>
    <connection from="-1015928374#1" to="1015928374#1" fromLane="0" toLane="0"/>

    <connection from="-1015928375" to="-1015928374#0" fromLane="0" toLane="0"/>
    <connection from="-1015928375" to="1015928374#1" fromLane="0" toLane="0"/>
    <connection from="-1015928375" to="1015928375" fromLane="0" toLane="0"/>

    <connection from="-1015928378#0" to="-27371781#1" fromLane="0" toLane="0"/>
    <connection from="-1015928378#0" to="27371787#0" fromLane="0" toLane="0"/>
    <connection from="-1015928378#0" to="1015928378#0" fromLane="0" toLane="0"/>

    <connection from="-1015928378#1" to="-1015928378#0" fromLane="0" toLane="0"/>
    <connection from="-1015928378#1" to="894163368" fromLane="0" toLane="0"/>

    <connection from="-1015928378#2" to="807798562" fromLane="0" toLane="0"/>
    <connection from="-1015928378#2" to="-1015928378#1" fromLane="0" toLane="0"/>

    <connection from="-1015928378#3" to="209822828#0" fromLane="0" toLane="0"/>
    <connection from="-1015928378#3" to="-1015928378#2" fromLane="0" toLane="0"/>
    <connection from="-1015928378#3" to="1015928378#3" fromLane="0" toLane="0"/>

    <connection from="-1015928378#4" to="-1015928378#3" fromLane="0" toLane="0"/>
    <connection from="-1015928378#4" to="1015928378#4" fromLane="0" toLane="0"/>

    <connection from="-1015928379#0" to="-27371808#0" fromLane="0" toLane="0"/>
    <connection from="-1015928379#0" to="27371808#1" fromLane="0" toLane="0"/>
    <connection from="-1015928379#0" to="1015928379#0" fromLane="0" toLane="0"/>

    <connection from="-1015928380" to="1015928379#1" fromLane="0" toLane="0"/>
    <connection from="-1015928380" to="-1015928379#0" fromLane="0" toLane="0"/>
    <connection from="-1015928380" to="1015928380" fromLane="0" toLane="0"/>

    <connection from="-1015928381" to="-1015928379#0" fromLane="0" toLane="0"/>
    <connection from="-1015928381" to="1015928380" fromLane="0" toLane="0"/>
    <connection from="-1015928381" to="1015928379#1" fromLane="0" toLane="0"/>

    <connection from="-1015928383" to="223389261#0" fromLane="0" toLane="0"/>
    <connection from="-1015928383" to="172700982#0" fromLane="0" toLane="0"/>
    <connection from="-1015928383" to="1015928383" fromLane="0" toLane="0"/>

    <connection from="-1015928385" to="-1015928386" fromLane="0" toLane="0"/>
    <connection from="-1015928385" to="-1015928386" fromLane="1" toLane="1"/>

    <connection from="-1015928386" to="255006133" fromLane="0" toLane="0"/>
    <connection from="-1015928386" to="-255006159#3" fromLane="0" toLane="0"/>
    <connection from="-1015928386" to="-255006159#3" fromLane="1" toLane="1"/>

    <connection from="-1015928389#0" to="255006137#1" fromLane="0" toLane="0"/>
    <connection from="-1015928389#0" to="-1015928385" fromLane="0" toLane="0"/>
    <connection from="-1015928389#0" to="-1015928385" fromLane="1" toLane="1"/>
    <connection from="-1015928389#0" to="-807798538" fromLane="1" toLane="0"/>
    <connection from="-1015928389#0" to="1015928389#0" fromLane="1" toLane="1"/>

    <connection from="-1015928389#1" to="-1015928389#0" fromLane="0" toLane="0"/>
    <connection from="-1015928389#1" to="-1015928389#0" fromLane="1" toLane="1"/>

    <connection from="-1015928389#2" to="-255006134#2" fromLane="0" toLane="0"/>
    <connection from="-1015928389#2" to="-1015928389#1" fromLane="0" toLane="0"/>
    <connection from="-1015928389#2" to="-1015928389#1" fromLane="1" toLane="1"/>

    <connection from="-1015928396" to="1015928400#0" fromLane="0" toLane="0"/>

    <connection from="-1015928402" to="-255006143#2" fromLane="0" toLane="0"/>
    <connection from="-1015928402" to="1015928403" fromLane="0" toLane="0"/>
    <connection from="-1015928402" to="1015928402" fromLane="0" toLane="0"/>

    <connection from="-1015928405#1" to="264569360#10" fromLane="0" toLane="0"/>
    <connection from="-1015928405#1" to="918034049#4" fromLane="0" toLane="0"/>
    <connection from="-1015928405#1" to="1015928405#1" fromLane="0" toLane="0"/>

    <connection from="-1015928406" to="-1015928405#1" fromLane="0" toLane="0"/>
    <connection from="-1015928406" to="1015928407" fromLane="0" toLane="0"/>
    <connection from="-1015928406" to="1015928406" fromLane="0" toLane="0"/>

    <connection from="-1015928407" to="1015928406" fromLane="0" toLane="0"/>
    <connection from="-1015928407" to="-1015928405#1" fromLane="0" toLane="0"/>
    <connection from="-1015928407" to="1015928407" fromLane="0" toLane="0"/>

    <connection from="-1015928408" to="1015928408" fromLane="0" toLane="0"/>

    <connection from="-1015928411#0" to="318314213" fromLane="0" toLane="0"/>
    <connection from="-1015928411#0" to="-27371738" fromLane="0" toLane="0"/>

    <connection from="-1015928411#1" to="-1015928411#0" fromLane="0" toLane="0"/>
    <connection from="-1015928411#1" to="1015928411#1" fromLane="0" toLane="0"/>

    <connection from="-1015928412#1" to="-1103844754#1" fromLane="0" toLane="0"/>
    <connection from="-1015928412#1" to="144460700#1" fromLane="0" toLane="0"/>
    <connection from="-1015928412#1" to="-144460700#0" fromLane="0" toLane="0"/>
    <connection from="-1015928412#1" to="1015928412#1" fromLane="0" toLane="0"/>

    <connection from="-1015928412#2" to="-1015928413" fromLane="0" toLane="0"/>
    <connection from="-1015928412#2" to="-1015928412#1" fromLane="0" toLane="0"/>
    <connection from="-1015928412#2" to="1015928412#2" fromLane="0" toLane="0"/>

    <connection from="-1015928412#3" to="-1015928414" fromLane="0" toLane="0"/>
    <connection from="-1015928412#3" to="-1015928412#2" fromLane="0" toLane="0"/>
    <connection from="-1015928412#3" to="1015928412#3" fromLane="0" toLane="0"/>

    <connection from="-1015928413" to="1015928413" fromLane="0" toLane="0"/>

    <connection from="-1015928414" to="1015928414" fromLane="0" toLane="0"/>

    <connection from="-1015928415" to="-144460702#0" fromLane="0" toLane="0"/>
    <connection from="-1015928415" to="144460702#1" fromLane="0" toLane="0"/>
    <connection from="-1015928415" to="1015928415" fromLane="0" toLane="0"/>

    <connection from="-1015928416#0" to="-255006145#4" fromLane="0" toLane="0"/>
    <connection from="-1015928416#0" to="-255006133" fromLane="0" toLane="0"/>
    <connection from="-1015928416#0" to="1015928416#0" fromLane="0" toLane="0"/>

    <connection from="-1015928416#1" to="-1015928416#0" fromLane="0" toLane="0"/>
    <connection from="-1015928416#1" to="1015928416#1" fromLane="0" toLane="0"/>

    <connection from="-1016170436" to="458102753" fromLane="0" toLane="0"/>
    <connection from="-1016170436" to="-1041671018" fromLane="0" toLane="0"/>
    <connection from="-1016170436" to="-28762105#2" fromLane="0" toLane="0"/>
    <connection from="-1016170436" to="1016170436" fromLane="0" toLane="0"/>

    <connection from="-1016170437" to="-1016170436" fromLane="0" toLane="0"/>
    <connection from="-1016170437" to="281945594#0" fromLane="0" toLane="0"/>
    <connection from="-1016170437" to="1016170437" fromLane="0" toLane="0"/>

    <connection from="-1016865854#0" to="-308799250#3" fromLane="0" toLane="0"/>
    <connection from="-1016865854#0" to="1016865854#0" fromLane="0" toLane="0"/>

    <connection from="-1016865854#2" to="-982254124" fromLane="0" toLane="0"/>
    <connection from="-1016865854#2" to="1016865859" fromLane="0" toLane="0"/>
    <connection from="-1016865854#2" to="-1016865854#0" fromLane="0" toLane="0"/>
    <connection from="-1016865854#2" to="1016865854#2" fromLane="0" toLane="0"/>

    <connection from="-1016865854#4" to="-1016865854#2" fromLane="0" toLane="0"/>
    <connection from="-1016865854#4" to="1016865855" fromLane="0" toLane="0"/>
    <connection from="-1016865854#4" to="1016865854#4" fromLane="0" toLane="0"/>

    <connection from="-1016865855" to="1016865854#4" fromLane="0" toLane="0"/>
    <connection from="-1016865855" to="-1016865854#2" fromLane="0" toLane="0"/>
    <connection from="-1016865855" to="1016865855" fromLane="0" toLane="0"/>

    <connection from="-1016878700#1" to="-191471131#2" fromLane="0" toLane="0"/>

    <connection from="-1017418249" to="1017418249" fromLane="0" toLane="0"/>

    <connection from="-1017418251" to="1056276240#9" fromLane="0" toLane="0"/>
    <connection from="-1017418251" to="1017418251" fromLane="0" toLane="0"/>

    <connection from="-1017418252#0" to="1056276240#3" fromLane="0" toLane="0"/>
    <connection from="-1017418252#0" to="664141535#4" fromLane="0" toLane="0"/>
    <connection from="-1017418252#0" to="-664141535#3" fromLane="0" toLane="0"/>
    <connection from="-1017418252#0" to="1075873777#1" fromLane="0" toLane="0"/>

    <connection from="-1017418252#1" to="-1017418252#0" fromLane="0" toLane="0"/>
    <connection from="-1017418252#1" to="1056276235" fromLane="0" toLane="0"/>
    <connection from="-1017418252#1" to="1017418252#1" fromLane="0" toLane="0"/>

    <connection from="-1017418252#2" to="-1017418252#1" fromLane="0" toLane="0"/>
    <connection from="-1017418252#2" to="1056276236" fromLane="0" toLane="0"/>
    <connection from="-1017418252#2" to="1017418252#2" fromLane="0" toLane="0"/>

    <connection from="-1021737476" to="43383862#0" fromLane="0" toLane="0"/>
    <connection from="-1021737476" to="-264567446#2" fromLane="0" toLane="0"/>
    <connection from="-1021737476" to="1021737476" fromLane="0" toLane="0"/>

    <connection from="-1022964820#0" to="653106666" fromLane="0" toLane="0"/>
    <connection from="-1022964820#0" to="142890636#2" fromLane="0" toLane="0"/>
    <connection from="-1022964820#0" to="1022964820#0" fromLane="0" toLane="0"/>

    <connection from="-1022964820#1" to="142890636#1" fromLane="0" toLane="0"/>
    <connection from="-1022964820#1" to="-1022964820#0" fromLane="0" toLane="0"/>
    <connection from="-1022964820#1" to="1022964820#1" fromLane="0" toLane="0"/>

    <connection from="-1024521824" to="1024521824" fromLane="0" toLane="0"/>

    <connection from="-1024521825" to="170594909#0" fromLane="0" toLane="0"/>
    <connection from="-1024521825" to="-44221312#0" fromLane="0" toLane="0"/>
    <connection from="-1024521825" to="836763852#1" fromLane="0" toLane="0"/>
    <connection from="-1024521825" to="-700853767" fromLane="0" toLane="0"/>
    <connection from="-1024521825" to="1024521825" fromLane="0" toLane="0"/>

    <connection from="-1024521827#0" to="-326099903#1" fromLane="0" toLane="0"/>

    <connection from="-1024521827#1" to="52867539#0" fromLane="0" toLane="0"/>
    <connection from="-1024521827#1" to="-1024521827#0" fromLane="0" toLane="0"/>
    <connection from="-1024521827#1" to="931968663#0" fromLane="0" toLane="0"/>
    <connection from="-1024521827#1" to="1024521827#1" fromLane="0" toLane="0"/>

    <connection from="-1024521828" to="205395223#0" fromLane="0" toLane="0"/>

    <connection from="-1025427692" to="1030593307#0" fromLane="0" toLane="0"/>
    <connection from="-1025427692" to="-52879824#0" fromLane="0" toLane="0"/>
    <connection from="-1025427692" to="52879824#1" fromLane="0" toLane="0"/>
    <connection from="-1025427692" to="1025427692" fromLane="0" toLane="0"/>

    <connection from="-1025427693" to="1230792075" fromLane="0" toLane="0"/>
    <connection from="-1025427693" to="1103504049" fromLane="0" toLane="0"/>
    <connection from="-1025427693" to="1103504057" fromLane="0" toLane="1"/>
    <connection from="-1025427693" to="-1230792076#0" fromLane="0" toLane="0"/>
    <connection from="-1025427693" to="-52879824#1" fromLane="0" toLane="0"/>
    <connection from="-1025427693" to="1025427693" fromLane="0" toLane="0"/>

    <connection from="-1030593307#0" to="-52879824#0" fromLane="0" toLane="0"/>
    <connection from="-1030593307#0" to="52879824#1" fromLane="0" toLane="0"/>
    <connection from="-1030593307#0" to="1025427692" fromLane="0" toLane="0"/>
    <connection from="-1030593307#0" to="1030593307#0" fromLane="0" toLane="0"/>

    <connection from="-1030593307#1" to="-326921776#1" fromLane="0" toLane="0"/>
    <connection from="-1030593307#1" to="-1030593307#0" fromLane="0" toLane="0"/>

    <connection from="-1030593307#2" to="-323215817#2" fromLane="0" toLane="0"/>
    <connection from="-1030593307#2" to="-1030593307#1" fromLane="0" toLane="0"/>

    <connection from="-103163540" to="-40802538" fromLane="0" toLane="0"/>
    <connection from="-103163540" to="103163540" fromLane="0" toLane="0"/>

    <connection from="-103163541" to="-456238189#1" fromLane="0" toLane="0"/>

    <connection from="-103163542" to="-458106382" fromLane="0" toLane="0"/>
    <connection from="-103163542" to="458106381#0" fromLane="0" toLane="0"/>
    <connection from="-103163542" to="103163542" fromLane="0" toLane="0"/>

    <connection from="-103163543#0" to="40801715#0" fromLane="0" toLane="0"/>
    <connection from="-103163543#0" to="-40801529" fromLane="0" toLane="0"/>
    <connection from="-103163543#0" to="103163543#0" fromLane="0" toLane="0"/>

    <connection from="-103163543#1" to="-103163543#0" fromLane="0" toLane="0"/>
    <connection from="-103163543#1" to="1056302177" fromLane="0" toLane="0"/>

    <connection from="-103163543#3" to="-103163542" fromLane="0" toLane="0"/>
    <connection from="-103163543#3" to="-103163543#1" fromLane="0" toLane="0"/>
    <connection from="-103163543#3" to="103163544#0" fromLane="0" toLane="0"/>
    <connection from="-103163543#3" to="103163543#3" fromLane="0" toLane="0"/>

    <connection from="-103163544#0" to="103163543#3" fromLane="0" toLane="0"/>
    <connection from="-103163544#0" to="-103163542" fromLane="0" toLane="0"/>
    <connection from="-103163544#0" to="-103163543#1" fromLane="0" toLane="0"/>
    <connection from="-103163544#0" to="103163544#0" fromLane="0" toLane="0"/>

    <connection from="-103163544#1" to="-103163544#0" fromLane="0" toLane="0"/>
    <connection from="-103163544#1" to="749748589" fromLane="0" toLane="0"/>

    <connection from="-1034409338#0" to="-295972034#3" fromLane="0" toLane="0"/>
    <connection from="-1034409338#0" to="295972034#4" fromLane="0" toLane="0"/>
    <connection from="-1034409338#0" to="1034409338#0" fromLane="0" toLane="0"/>

    <connection from="-1034409338#1" to="-1034409338#2" fromLane="0" toLane="0"/>
    <connection from="-1034409338#1" to="-1034409338#0" fromLane="0" toLane="0"/>
    <connection from="-1034409338#1" to="1034409338#1" fromLane="0" toLane="0"/>

    <connection from="-1034409338#2" to="-1034409338#1" fromLane="0" toLane="0"/>
    <connection from="-1034409338#2" to="1034409339#0" fromLane="0" toLane="0"/>
    <connection from="-1034409338#2" to="1034409338#2" fromLane="0" toLane="0"/>

    <connection from="-1034409339#0" to="1034409338#2" fromLane="0" toLane="0"/>
    <connection from="-1034409339#0" to="-1034409338#1" fromLane="0" toLane="0"/>
    <connection from="-1034409339#0" to="1034409339#0" fromLane="0" toLane="0"/>

    <connection from="-1034409339#1" to="1034409341" fromLane="0" toLane="0"/>