<?xml version="1.0" encoding="UTF-8"?>

<!-- generated on 2025-04-04 16:24:30 by Eclipse SUMO netconvert Version 1.19.0
<configuration xmlns:xsi="http://www.w3.org/2001/XMLSchema-instance" xsi:noNamespaceSchemaLocation="http://sumo.dlr.de/xsd/netconvertConfiguration.xsd">

    <input>
        <sumo-net-file value="melun/melun.net.xml"/>
    </input>

    <output>
        <plain-output-prefix value="melun/melun"/>
    </output>

    <processing>
        <geometry.min-radius.fix.railways value="false"/>
        <geometry.max-grade.fix value="false"/>
        <offset.disable-normalization value="true"/>
        <lefthand value="0"/>
    </processing>

    <tls_building>
        <tls.ignore-internal-junction-jam value="1"/>
    </tls_building>

    <junctions>
        <no-turnarounds value="true"/>
        <junctions.corner-detail value="5"/>
        <junctions.limit-turn-speed value="5.50"/>
        <rectangular-lane-cut value="0"/>
    </junctions>

    <pedestrian>
        <walkingareas value="0"/>
    </pedestrian>

</configuration>
-->

<tlLogics version="1.16" xmlns:xsi="http://www.w3.org/2001/XMLSchema-instance" xsi:noNamespaceSchemaLocation="http://sumo.dlr.de/xsd/tllogic_file.xsd">
    <tlLogic id="11051202131" type="static" programID="0" offset="0">
        <phase duration="82" state="GG"/>
        <phase duration="3"  state="yy"/>
        <phase duration="5"  state="rr"/>
    </tlLogic>
    <tlLogic id="1454296908" type="static" programID="0" offset="0">
        <phase duration="79" state="G"/>
        <phase duration="6"  state="y"/>
        <phase duration="5"  state="r"/>
    </tlLogic>
    <tlLogic id="1580119430" type="static" programID="0" offset="0">
        <phase duration="42" state="GGggrrGGGg"/>
        <phase duration="3"  state="yyyyrryyyy"/>
        <phase duration="42" state="rrrrGGGrrr"/>
        <phase duration="3"  state="rrrryyyrrr"/>
    </tlLogic>
    <tlLogic id="168796409" type="static" programID="0" offset="0">
        <phase duration="82" state="GG"/>
        <phase duration="3"  state="yy"/>
        <phase duration="5"  state="rr"/>
    </tlLogic>
    <tlLogic id="168807535" type="static" programID="0" offset="0">
        <phase duration="35" state="rrrrGGrrrrrrGGGrr"/>
        <phase duration="5"  state="rrrryyrrrrrryyyrr"/>
        <phase duration="6"  state="rrrrrrGGrrrrrrrGG"/>
        <phase duration="5"  state="rrrrrryyrrrrrrryy"/>
        <phase duration="34" state="GGggrrrrGGggrrrrr"/>
        <phase duration="5"  state="yyyyrrrryyyyrrrrr"/>
    </tlLogic>
    <tlLogic id="1835800426" type="static" programID="0" offset="0">
        <phase duration="42" state="GGgGGGgrrr"/>
        <phase duration="3"  state="yyyyyyyrrr"/>
        <phase duration="42" state="rrrrrrrGGG"/>
        <phase duration="3"  state="rrrrrrryyy"/>
    </tlLogic>
    <tlLogic id="2020470980" type="static" programID="0" offset="0">
        <phase duration="82" state="G"/>
        <phase duration="3"  state="y"/>
        <phase duration="5"  state="r"/>
    </tlLogic>
    <tlLogic id="2209761069" type="static" programID="0" offset="0">
        <phase duration="38" state="GGgrrrGGGg"/>
        <phase duration="3"  state="yygrrryyyy"/>
        <phase duration="6"  state="GGGrrrrrrr"/>
        <phase duration="3"  state="yyyrrrrrrr"/>
        <phase duration="37" state="rrrGGgGrrr"/>
        <phase duration="3"  state="rrryyyyrrr"/>
    </tlLogic>
    <tlLogic id="2354926580" type="static" programID="0" offset="0">
        <phase duration="38" state="GGgGggrrr"/>
        <phase duration="3"  state="yyyyggrrr"/>
        <phase duration="6"  state="rrrGGGrrr"/>
        <phase duration="3"  state="rrryyyrrr"/>
        <phase duration="37" state="GrrrrrGGg"/>
        <phase duration="3"  state="yrrrrryyy"/>
    </tlLogic>
    <tlLogic id="247805743" type="static" programID="0" offset="0">
        <phase duration="42" state="GGgGrrr"/>
        <phase duration="3"  state="yyyyrrr"/>
        <phase duration="42" state="rrrGGGG"/>
        <phase duration="3"  state="rrryyyy"/>
    </tlLogic>
    <tlLogic id="247805744" type="static" programID="0" offset="0">
        <phase duration="42" state="GGrr"/>
        <phase duration="3"  state="yyrr"/>
        <phase duration="42" state="rrGG"/>
        <phase duration="3"  state="rryy"/>
    </tlLogic>
    <tlLogic id="280952384" type="static" programID="0" offset="0">
        <phase duration="33" state="rrrGrrGGg"/>
        <phase duration="6"  state="rrryrryyy"/>
        <phase duration="6"  state="rrrGGGrrr"/>
        <phase duration="6"  state="rrryyyrrr"/>
        <phase duration="33" state="GGGrrrrrr"/>
        <phase duration="6"  state="yyyrrrrrr"/>
    </tlLogic>
    <tlLogic id="280973243" type="static" programID="0" offset="0">
        <phase duration="42" state="GGrr"/>
        <phase duration="3"  state="yyrr"/>
        <phase duration="42" state="rrGG"/>
        <phase duration="3"  state="rryy"/>
    </tlLogic>
    <tlLogic id="280977032" type="static" programID="0" offset="0">
        <phase duration="42" state="GGggGGggrrrr"/>
        <phase duration="3"  state="yyyyyyyyrrrr"/>
        <phase duration="42" state="GrrrrrrrGGGg"/>
        <phase duration="3"  state="yrrrrrrryyyy"/>
    </tlLogic>
    <tlLogic id="300416333" type="static" programID="0" offset="0">
        <phase duration="39" state="rrrGggGGg"/>
        <phase duration="6"  state="rrryyyyyy"/>
        <phase duration="39" state="GGGrrrrrr"/>
        <phase duration="6"  state="yyyrrrrrr"/>
    </tlLogic>
    <tlLogic id="300473847" type="static" programID="0" offset="0">
        <phase duration="18" state="GGGgGrrrrrrrrrrr"/>
        <phase duration="3"  state="yyyyyrrrrrrrrrrr"/>
        <phase duration="20" state="rrrrGGGgGrrrrrrr"/>
        <phase duration="3"  state="rrrryyyyyrrrrrrr"/>
        <phase duration="20" state="GrrrrrrrrrrrGGGg"/>
        <phase duration="3"  state="yrrrrrrrrrrryyyy"/>
        <phase duration="20" state="rrrrrrrrGGGgGrrr"/>
        <phase duration="3"  state="rrrrrrrryyyyyrrr"/>
    </tlLogic>
    <tlLogic id="301905874" type="static" programID="0" offset="0">
        <phase duration="27" state="rrrGGgrrrGgg"/>
        <phase duration="3"  state="rrryyyrrryyy"/>
        <phase duration="27" state="rrrrrrGGGrrr"/>
        <phase duration="3"  state="rrrrrryyyrrr"/>
        <phase duration="27" state="GGgGrrrrrrrr"/>
        <phase duration="3"  state="yyyyrrrrrrrr"/>
    </tlLogic>
    <tlLogic id="3128772333" type="static" programID="0" offset="0">
        <phase duration="82" state="G"/>
        <phase duration="3"  state="y"/>
        <phase duration="5"  state="r"/>
    </tlLogic>
    <tlLogic id="436585634" type="static" programID="0" offset="0">
        <phase duration="42" state="GggrrrGGg"/>
        <phase duration="3"  state="yyyrrryyy"/>
        <phase duration="42" state="rrrGGgGrr"/>
        <phase duration="3"  state="rrryyyyrr"/>
    </tlLogic>
    <tlLogic id="4542540359" type="static" programID="0" offset="0">
        <phase duration="42" state="GgGrr"/>
        <phase duration="3"  state="yyyrr"/>
        <phase duration="42" state="rrGGG"/>
        <phase duration="3"  state="rryyy"/>
    </tlLogic>
    <tlLogic id="5499345354" type="static" programID="0" offset="0">
        <phase duration="82" state="G"/>
        <phase duration="3"  state="y"/>
        <phase duration="5"  state="r"/>
    </tlLogic>
    <tlLogic id="619007648" type="static" programID="0" offset="0">
        <phase duration="42" state="GGr"/>
        <phase duration="3"  state="yyr"/>
        <phase duration="42" state="rrG"/>
        <phase duration="3"  state="rry"/>
    </tlLogic>
    <tlLogic id="GS_2020449152" type="static" programID="0" offset="0">
        <phase duration="42" state="Gr"/>
        <phase duration="3"  state="yr"/>
        <phase duration="42" state="rG"/>
        <phase duration="3"  state="ry"/>
    </tlLogic>
    <tlLogic id="GS_280953498" type="static" programID="0" offset="0">
        <phase duration="39" state="GGGGrr"/>
        <phase duration="6"  state="yyyyrr"/>
        <phase duration="39" state="rrrrGG"/>
        <phase duration="6"  state="rrrryy"/>
    </tlLogic>
    <tlLogic id="GS_280973646" type="static" programID="0" offset="0">
        <phase duration="39" state="rrrrGGggrrrrGGgg"/>
        <phase duration="6"  state="rrrryyyyrrrryyyy"/>
        <phase duration="39" state="GGggrrrrGGggrrrr"/>
        <phase duration="6"  state="yyyyrrrryyyyrrrr"/>
    </tlLogic>
    <tlLogic id="GS_301921252" type="static" programID="0" offset="0">
        <phase duration="42" state="GGggrrrrGGgg"/>
        <phase duration="3"  state="yyyyrrrryyyy"/>
        <phase duration="42" state="rrrrGGGgGrrr"/>
        <phase duration="3"  state="rrrryyyyyrrr"/>
    </tlLogic>
    <tlLogic id="GS_666474958" type="static" programID="0" offset="0">
        <phase duration="42" state="GGgGggrrr"/>
        <phase duration="3"  state="yyyyyyrrr"/>
        <phase duration="42" state="GrrrrrGGg"/>
        <phase duration="3"  state="yrrrrryyy"/>
    </tlLogic>
    <tlLogic id="GS_cluster_1554850037_1554850076" type="static" programID="0" offset="0">
        <phase duration="20" state="rrrrGGGGGGrrrrrr"/>
        <phase duration="5"  state="rrrryyyyyyrrrrrr"/>
        <phase duration="6"  state="rrrrrrrrGGGGrrrr"/>
        <phase duration="5"  state="rrrrrrrryyyyrrrr"/>
        <phase duration="22" state="GGGgGrrrrrrrrrrr"/>
        <phase duration="5"  state="yyyyyrrrrrrrrrrr"/>
        <phase duration="22" state="GrrrrrrrrrrrGGGg"/>
        <phase duration="5"  state="yrrrrrrrrrrryyyy"/>
    </tlLogic>
    <tlLogic id="GS_cluster_2020470818_301910838" type="static" programID="0" offset="0">
        <phase duration="40" state="rrrrGGGggrrrrGGGgg"/>
        <phase duration="5"  state="rrrryyyyyrrrryyyyy"/>
        <phase duration="40" state="GGggrrrrrGGggrrrrr"/>
        <phase duration="5"  state="yyyyrrrrryyyyrrrrr"/>
    </tlLogic>
    <tlLogic id="GS_cluster_280952480_2966654832_618476287" type="static" programID="0" offset="0">
        <phase duration="15" state="GrrrrGGrrr"/>
        <phase duration="6"  state="yrrrryyrrr"/>
        <phase duration="17" state="rrrrrrrGGG"/>
        <phase duration="6"  state="rrrrrrryyy"/>
        <phase duration="17" state="GGGrrrrrrr"/>
        <phase duration="6"  state="yyyrrrrrrr"/>
        <phase duration="17" state="GrrGGrrrrr"/>
        <phase duration="6"  state="yrryyrrrrr"/>
    </tlLogic>
    <tlLogic id="cluster_11414316056_1473487247_1817657680_1817657692_#8more" type="static" programID="0" offset="0">
        <phase duration="40" state="gggGggrrrrrrGGggggggggggrrrrrrgggggg"/>
        <phase duration="5"  state="yyyyyyrrrrrryyyyyyyyyyyyrrrrrryyyyyy"/>
        <phase duration="40" state="rrrrrrGGGgggrrrrrrrrrrrrGGGgggrrrrrr"/>
        <phase duration="5"  state="rrrrrryyyyyyrrrrrrrrrrrryyyyyyrrrrrr"/>
    </tlLogic>
    <tlLogic id="cluster_11626648058_5149591578_8572640681" type="static" programID="0" offset="0">
        <phase duration="42" state="GGggrrrrGGggrrrr"/>
        <phase duration="3"  state="yyyyrrrryyyyrrrr"/>
        <phase duration="42" state="rrrrGGggrrrrGGgg"/>
        <phase duration="3"  state="rrrryyyyrrrryyyy"/>
    </tlLogic>
    <tlLogic id="cluster_1350487314_2693279839_2725160849_2725160850_#7more" type="static" programID="0" offset="0">
        <phase duration="42" state="GGGGGrrrrrGGGggg"/>
        <phase duration="3"  state="yyyyyrrrrryyyyyy"/>
        <phase duration="41" state="rrrrrGGGGGrrrrrr"/>
        <phase duration="3"  state="rrrrryyyyyrrrrrr"/>
        <phase duration="1"  state="rrrrrrrrrrrrrrrr"/>
    </tlLogic>
    <tlLogic id="cluster_1378068849_1378068852" type="static" programID="0" offset="0">
        <phase duration="24" state="GGGggGGGrrrrrrrr"/>
        <phase duration="6"  state="yyyyyyyyrrrrrrrr"/>
        <phase duration="24" state="rrrrrrrrGGGGrrrr"/>
        <phase duration="6"  state="rrrrrrrryyyyrrrr"/>
        <phase duration="24" state="rrrrrrrrrrrrGGGG"/>
        <phase duration="6"  state="rrrrrrrrrrrryyyy"/>
    </tlLogic>
    <tlLogic id="cluster_1416347173_3654099963" type="static" programID="0" offset="0">
        <phase duration="38" state="ggggggrrrrrrggggggggGGggGGgggg"/>
        <phase duration="3"  state="ggggggrrrrrrggggggggyyggyygggg"/>
        <phase duration="6"  state="ggggggrrrrrrggggggggrrGgrrGgGg"/>
        <phase duration="3"  state="yyyyyyrrrrrryyyyyyyyrryyrryyyy"/>
        <phase duration="37" state="rrrrrrGGGGGgGrrrrrrrrrrrrrrrrr"/>
        <phase duration="3"  state="rrrrrryyyyyyyrrrrrrrrrrrrrrrrr"/>
    </tlLogic>
    <tlLogic id="cluster_1554849990_1554850059_670343210_992563360" type="static" programID="0" offset="0">
        <phase duration="20" state="GrrrrrrrrrrrrrrrrrrrrrrrrrrrrrrGGGGGg"/>
        <phase duration="6"  state="yrrrrrrrrrrrrrrrrrrrrrrrrrrrrrryyyyyy"/>
        <phase duration="20" state="GGGGGgGgggggggggggrrrrrrrrrrrrrrrrrrr"/>
        <phase duration="6"  state="yyyyyyygggggggggggrrrrrrrrrrrrrrrrrrr"/>
        <phase duration="6"  state="rrrrrrrGGGGgGgggggrrrrrrrrrrrrrrrrrrr"/>
        <phase duration="6"  state="rrrrrrryyyyyyyyyyyrrrrrrrrrrrrrrrrrrr"/>
        <phase duration="20" state="rrrrrrrrrrrrrrrrrrggggggGGGGGGgrrrrrr"/>
        <phase duration="6"  state="rrrrrrrrrrrrrrrrrryyyyyyyyyyyyyrrrrrr"/>
    </tlLogic>
    <tlLogic id="cluster_1579683979_1579684124_1579684271_1579684497_#9more" type="static" programID="0" offset="0">
        <phase duration="25" state="rrrrrrrrGGGGggGGGG"/>
        <phase duration="3"  state="rrrrrrrryyyyyyyyyy"/>
        <phase duration="2"  state="rrrrrrrrrrrrrrrrrr"/>
        <phase duration="25" state="GGGGrrrrrrrrrrrrrr"/>
        <phase duration="3"  state="yyyyrrrrrrrrrrrrrr"/>
        <phase duration="4"  state="rrrrrrrrrrrrrrrrrr"/>
        <phase duration="25" state="rrrrGGGGrrrrrrrrrr"/>
        <phase duration="3"  state="rrrryyyyrrrrrrrrrr"/>
    </tlLogic>
    <tlLogic id="cluster_1579684829_280980703" type="static" programID="0" offset="0">
        <phase duration="25" state="rrrrGGgGGgrrrr"/>
        <phase duration="5"  state="rrrryyyyyyrrrr"/>
        <phase duration="25" state="rrrrrrrrrrGGGG"/>
        <phase duration="5"  state="rrrrrrrrrryyyy"/>
        <phase duration="25" state="GGGgGrrrrrrrrr"/>
        <phase duration="5"  state="yyyyyrrrrrrrrr"/>
    </tlLogic>
    <tlLogic id="cluster_1579685008_2704362568_3608500714_3608500719_#3more" type="static" programID="0" offset="0">
        <phase duration="25" state="gggGgrrrrrrrrrrGggggGGggGGG"/>
        <phase duration="3"  state="yyyyyrrrrrrrrrryyyyyyyyyyyy"/>
        <phase duration="1"  state="rrrrrrrrrrrrrrrrrrrrrrrrrrr"/>
        <phase duration="27" state="rrrrrrrrrrGGGGGrrrrrrrrrrrr"/>
        <phase duration="3"  state="rrrrrrrrrryyyyyrrrrrrrrrrrr"/>
        <phase duration="1"  state="rrrrrrrrrrrrrrrrrrrrrrrrrrr"/>
        <phase duration="27" state="rrrrrGGGGGrrrrrrrrrrrrrrrrr"/>
        <phase duration="3"  state="rrrrryyyyyrrrrrrrrrrrrrrrrr"/>
    </tlLogic>
    <tlLogic id="cluster_1582788160_4509567201_5265471266" type="static" programID="0" offset="0">
        <phase duration="27" state="gggggggrrrrrrrrrrrrrrggggggggggGGGggrrrrrrrGGGggggg"/>
        <phase duration="3"  state="yyyyyyyrrrrrrrrrrrrrryyyyyyyyyyyyyyyrrrrrrryyyyyyyy"/>
        <phase duration="27" state="rrrrrrrGGGggggrrrrrrrrrrrrrrrrrrrrrrGGGGgggrrrrrrrr"/>
        <phase duration="3"  state="rrrrrrryyyyyyyrrrrrrrrrrrrrrrrrrrrrryyyyyyyrrrrrrrr"/>
        <phase duration="27" state="rrrrrrrrrrrrrrGGGGGGgGrrrrrrrrrrrrrrrrrrrrrrrrrrrrr"/>
        <phase duration="3"  state="rrrrrrrrrrrrrryyyyyyyyrrrrrrrrrrrrrrrrrrrrrrrrrrrrr"/>
    </tlLogic>
    <tlLogic id="cluster_1584060214_2020471040_301918771" type="static" programID="0" offset="0">
        <phase duration="16" state="rrrrrgggggGGgggrrrrGGGggrrrrrrrrrr"/>
        <phase duration="5"  state="rrrrryyyyyyyyyyrrrryyyyyrrrrrrrrrr"/>
        <phase duration="18" state="GGgggrrrrrrrrrrGGGgrrrrrrrrrrrrrrr"/>
        <phase duration="5"  state="yyyyyrrrrrrrrrryyyyrrrrrrrrrrrrrrr"/>
        <phase duration="18" state="rrrrrrrrrrrrrrrrrrrrrrrrGGGGGrrrrr"/>
        <phase duration="5"  state="rrrrrrrrrrrrrrrrrrrrrrrryyyyyrrrrr"/>
        <phase duration="18" state="rrrrrrrrrrrrrrrrrrrrrrrGrrrrrGGGGg"/>
        <phase duration="5"  state="rrrrrrrrrrrrrrrrrrrrrrryrrrrryyyyy"/>
    </tlLogic>
    <tlLogic id="cluster_168796413_300473953_3128772353_3128772354_#4more" type="static" programID="0" offset="0">
        <phase duration="42" state="rrGGGggrrrrGGgg"/>
        <phase duration="3"  state="rryyyyyrrrryyyy"/>
        <phase duration="41" state="GgrrrrrGGggGrrr"/>
        <phase duration="3"  state="yyrrrrryyyyyrrr"/>
        <phase duration="1"  state="rrrrrrrrrrrrrrr"/>
    </tlLogic>
    <tlLogic id="cluster_1857498919_1857498949_2364911829_2364911833_#3more" type="static" programID="0" offset="0">
        <phase duration="33" state="GGggGrrrrrrrrrr"/>
        <phase duration="6"  state="yyggyrrrrrrrrrr"/>
        <phase duration="6"  state="rrgGrgGGgrrrrrr"/>
        <phase duration="6"  state="rryyryyyyrrrrrr"/>
        <phase duration="33" state="GrrrrrrrrGGGGGg"/>
        <phase duration="6"  state="yrrrrrrrryyyyyy"/>
    </tlLogic>
    <tlLogic id="cluster_1999472455_646742166" type="static" programID="0" offset="0">
        <phase duration="40" state="rrrrrgggggGGgggrrrrrGGGgg"/>
        <phase duration="5"  state="rrrrryyyyyyyyyyrrrrryyyyy"/>
        <phase duration="40" state="GGgggrrrrrrrrrrGGGggrrrrr"/>
        <phase duration="5"  state="yyyyyrrrrrrrrrryyyyyrrrrr"/>
    </tlLogic>
    <tlLogic id="cluster_2020441243_2020441273_2020441290" type="static" programID="0" offset="0">
        <phase duration="42" state="rrrGGgGgg"/>
        <phase duration="3"  state="rrryyyyyy"/>
        <phase duration="42" state="GGgGrrrrr"/>
        <phase duration="3"  state="yyyyrrrrr"/>
    </tlLogic>
    <tlLogic id="cluster_2409105399_2409105400_2409105418_2409105429_#2more" type="static" programID="0" offset="0">
        <phase duration="42" state="GGGGgrrrrGGGgg"/>
        <phase duration="3"  state="yyyyyrrrryyyyy"/>
        <phase duration="41" state="rrrrrGGGGrrrrr"/>
        <phase duration="3"  state="rrrrryyyyrrrrr"/>
        <phase duration="1"  state="rrrrrrrrrrrrrr"/>
    </tlLogic>
    <tlLogic id="cluster_247805738_3608489275" type="static" programID="0" offset="0">
        <phase duration="23" state="GGGggrrrrrrrrrrGGgggrrrrr"/>
        <phase duration="3"  state="yyyyyrrrrrrrrrryyyyyrrrrr"/>
        <phase duration="3"  state="rrrrrrrrrrrrrrrrrrrrrrrrr"/>
        <phase duration="25" state="rrrrrGGgggrrrrrrrrrrggGgg"/>
        <phase duration="3"  state="rrrrryyyyyrrrrrrrrrryyyyy"/>
        <phase duration="2"  state="rrrrrrrrrrrrrrrrrrrrrrrrr"/>
        <phase duration="25" state="rrrrrrrrrrGGGGgGrrrrrrrrr"/>
        <phase duration="3"  state="rrrrrrrrrryyyyyyrrrrrrrrr"/>
        <phase duration="3"  state="rrrrrrrrrrrrrrrrrrrrrrrrr"/>
    </tlLogic>
    <tlLogic id="cluster_247805739_247805740_301908252_4349742129_#1more" type="static" programID="0" offset="0">
        <phase duration="24" state="GGgggrrrrrrrrrrGGGggrrrrr"/>
        <phase duration="6"  state="yyyyyrrrrrrrrrryyyyyrrrrr"/>
        <phase duration="24" state="rrrrrGGgggrrrrrrrrrrGGGgg"/>
        <phase duration="6"  state="rrrrryyyyyrrrrrrrrrryyyyy"/>
        <phase duration="24" state="rrrrrrrrrrGGGGgGrrrrrrrrr"/>
        <phase duration="6"  state="rrrrrrrrrryyyyyyrrrrrrrrr"/>
    </tlLogic>
    <tlLogic id="cluster_270832181_5500277740_5500277742" type="static" programID="0" offset="0">
        <phase duration="27" state="GGGgrrrrrGgggrrrr"/>
        <phase duration="6"  state="yyyyrrrrrygggrrrr"/>
        <phase duration="6"  state="rrrrrrrrrGGGGrrrr"/>
        <phase duration="6"  state="rrrrrrrrryyyyrrrr"/>
        <phase duration="27" state="rrrrGGGggrrrrGGrr"/>
        <phase duration="6"  state="rrrryyyggrrrryyrr"/>
        <phase duration="6"  state="rrrrrrrGGrrrrrrGG"/>
        <phase duration="6"  state="rrrrrrryyrrrrrryy"/>
    </tlLogic>
    <tlLogic id="cluster_280714346_280953798_5824934364" type="static" programID="0" offset="0">
        <phase duration="27" state="rrrrGgrrrrrrrrGGgG"/>
        <phase duration="3"  state="rrrryyrrrrrrrryyyy"/>
        <phase duration="27" state="GGGGrrrrrrrrrrrrrr"/>
        <phase duration="3"  state="yyyyrrrrrrrrrrrrrr"/>
        <phase duration="27" state="GrrrrrGGGGggGgrrrr"/>
        <phase duration="3"  state="yrrrrryyyyyyyyrrrr"/>
    </tlLogic>
    <tlLogic id="cluster_280952514_618476270" type="static" programID="0" offset="0">
        <phase duration="39" state="rrrGGgGGgg"/>
        <phase duration="6"  state="rrryyyyyyy"/>
        <phase duration="39" state="GGgGrrrrrr"/>
        <phase duration="6"  state="yyyyrrrrrr"/>
    </tlLogic>
    <tlLogic id="cluster_300466560_3142730153" type="static" programID="0" offset="0">
        <phase duration="42" state="GgggGgrrrrGgggGg"/>
        <phase duration="3"  state="yyyyyyrrrryyyyyy"/>
        <phase duration="42" state="rrrrrrGGGGrrrrrr"/>
        <phase duration="3"  state="rrrrrryyyyrrrrrr"/>
    </tlLogic>
    <tlLogic id="cluster_300473304_3142677094" type="static" programID="0" offset="0">
        <phase duration="27" state="GGGGGgGgggggrrrrrrrrrrrrrrrrrr"/>
        <phase duration="3"  state="yyyyyyyyyyyyrrrrrrrrrrrrrrrrrr"/>
        <phase duration="27" state="rrrrrrrrrrrrGGGGGgGrrrrrrrrrrr"/>
        <phase duration="3"  state="rrrrrrrrrrrryyyyyyyrrrrrrrrrrr"/>
        <phase duration="27" state="rrrrrrrrrrrrrrrrrrggggggGGGGGg"/>
        <phase duration="3"  state="rrrrrrrrrrrrrrrrrryyyyyyyyyyyy"/>
    </tlLogic>
    <tlLogic id="cluster_3608500716_3608500720_393467934_393468636" type="static" programID="0" offset="0">
        <phase duration="38" state="GGGGggrrGGGGrrrr"/>
        <phase duration="3"  state="yyyyyyrryyyyrrrr"/>
        <phase duration="37" state="GrrrrrGgrrrrGGgg"/>
        <phase duration="3"  state="yrrrrryyrrrryygg"/>
        <phase duration="6"  state="rrrrrrrrrrrrGGGG"/>
        <phase duration="3"  state="rrrrrrrrrrrryyyy"/>
    </tlLogic>
    <tlLogic id="cluster_992563378_992563379" type="static" programID="0" offset="0">
        <phase duration="35" state="rrrGGGgGGrr"/>
        <phase duration="5"  state="rrryyyyyyrr"/>
        <phase duration="6"  state="rrrrrrrGGGG"/>
        <phase duration="5"  state="rrrrrrryyyy"/>
        <phase duration="34" state="GGgGrrrrrrr"/>
        <phase duration="5"  state="yyyyrrrrrrr"/>
    </tlLogic>
    <tlLogic id="joinedS_10172129827_cluster_10172129832_10172129833_1473487167_1473487172_#6more" type="static" programID="0" offset="0">
        <phase duration="35" state="GggggggGGGrrrrrrrrrGGGrrrrrrrrr"/>
        <phase duration="5"  state="yggggggyyyrrrrrrrrryyyrrrrrrrrr"/>
        <phase duration="6"  state="GggggggrrrGGgrrrrrrrrrGGgrrrrrr"/>
        <phase duration="5"  state="yyyyyyyrrryyyrrrrrrrrryyyrrrrrr"/>
        <phase duration="34" state="rrrrrrrrrrrrrGGGgggrrrrrrGGGggg"/>
        <phase duration="5"  state="rrrrrrrrrrrrryyyyyyrrrrrryyyyyy"/>
    </tlLogic>
    <tlLogic id="joinedS_2409105410_cluster_300334043_393451114" type="static" programID="0" offset="0">
        <phase duration="23" state="GGrrrrGGGggrrrrGGGgg"/>
        <phase duration="3"  state="yyrrrryyyyyrrrryyyyy"/>
        <phase duration="2"  state="rrrrrrrrrrrrrrrrrrrr"/>
        <phase duration="25" state="GGrrrrrrrrrGGGgGrrrr"/>
        <phase duration="3"  state="yyrrrrrrrrryyyyyrrrr"/>
        <phase duration="2"  state="rrrrrrrrrrrrrrrrrrrr"/>
        <phase duration="25" state="GGGGGGrrrrrrrrrrrrrr"/>
        <phase duration="3"  state="yyyyyyrrrrrrrrrrrrrr"/>
        <phase duration="4"  state="rrrrrrrrrrrrrrrrrrrr"/>
    </tlLogic>
    <tlLogic id="joinedS_4359203228_cluster_1589937796_1589959675_1589959682_2409105412_#13more" type="static" programID="0" offset="0">
        <phase duration="24" state="GGGGGrrrrrrrr"/>
        <phase duration="6"  state="yyyyyrrrrrrrr"/>
        <phase duration="24" state="GrrrrGGGgGrrr"/>
        <phase duration="6"  state="yrrrryyyyyrrr"/>
        <phase duration="24" state="GGrrrrrrrGGGg"/>
        <phase duration="6"  state="yyrrrrrrryyyy"/>
    </tlLogic>
    <tlLogic id="joinedS_5508707406_5508707407" type="static" programID="0" offset="0">
        <phase duration="42" state="rrrrrrGGGrrrGGGrrr"/>
        <phase duration="3"  state="rrrrrryyyrrryyyrrr"/>
        <phase duration="42" state="GggGGgrrrGGgrrrGgg"/>
        <phase duration="3"  state="yyyyyyrrryyyrrryyy"/>
    </tlLogic>
    <tlLogic id="joinedS_cluster_10121783546_11414553164_12583072487_1817838894_#5more_cluster_1817657740_1817657771" type="static" programID="0" offset="0">
        <phase duration="40" state="GggggggggggGggGGGggggggggggggGrrrrrrrrrrrrrrrrrrGGGgggggggggggggggggggggggggggggggggggggggggggggggggggGgrrrrrrrrrrrggGgrrrrrGGgggggggggggg"/>
        <phase duration="3"  state="yyyyyyyyyyyyyyyyyyyyyyyyyyyyyyrrrrrrrrrrrrrrrrrryyyyyyyyyyyyyyyyyyyyyyyyyyyyyyyyyyyyyyyyyyyyyyyyyyyyyyyyrrrrrrrrrrryyyyrrrrryyyyyyyyyyyyyy"/>
        <phase duration="2"  state="rrrrrrrrrrrrrrrrrrrrrrrrrrrrrrrrrrrrrrrrrrrrrrrrrrrrrrrrrrrrrrrrrrrrrrrrrrrrrrrrrrrrrrrrrrrrrrrrrrrrrrrrrrrrrrrrrrrrrrrrrrrrrrrrrrrrrrrrrr"/>
        <phase duration="40" state="rrrrrrrrrrrrrrrrrrrrrrrrrrrrrGGGggggggggggggggggrrrrrrrrrrrrrrrrrrrrrrrrrrrrrrrrrrrrrrrrrrrrrrrrrrrrrrrrGGGGGGGggGgrrrrGGGGgGrrrrrrrrrrrrr"/>
        <phase duration="3"  state="rrrrrrrrrrrrrrrrrrrrrrrrrrrrryyyyyyyyyyyyyyyyyyyrrrrrrrrrrrrrrrrrrrrrrrrrrrrrrrrrrrrrrrrrrrrrrrrrrrrrrrryyyyyyyyyyyrrrryyyyyyrrrrrrrrrrrrr"/>
        <phase duration="2"  state="rrrrrrrrrrrrrrrrrrrrrrrrrrrrrrrrrrrrrrrrrrrrrrrrrrrrrrrrrrrrrrrrrrrrrrrrrrrrrrrrrrrrrrrrrrrrrrrrrrrrrrrrrrrrrrrrrrrrrrrrrrrrrrrrrrrrrrrrrr"/>
    </tlLogic>

    <connection from="-1025427693" to="1230792075" fromLane="0" toLane="0" tl="cluster_1554849990_1554850059_670343210_992563360" linkIndex="6"/>
    <connection from="-1025427693" to="1103504049" fromLane="0" toLane="0" tl="cluster_1554849990_1554850059_670343210_992563360" linkIndex="7"/>
    <connection from="-1025427693" to="1103504057" fromLane="0" toLane="1" tl="cluster_1554849990_1554850059_670343210_992563360" linkIndex="8"/>
    <connection from="-1025427693" to="-1230792076#0" fromLane="0" toLane="0" tl="cluster_1554849990_1554850059_670343210_992563360" linkIndex="9"/>
    <connection from="-1025427693" to="-52879824#1" fromLane="0" toLane="0" tl="cluster_1554849990_1554850059_670343210_992563360" linkIndex="10"/>
    <connection from="-1025427693" to="1025427693" fromLane="0" toLane="0" tl="cluster_1554849990_1554850059_670343210_992563360" linkIndex="11"/>
    <connection from="-108962034#0" to="-27499527#0" fromLane="0" toLane="0" tl="301905874" linkIndex="0"/>
    <connection from="-108962034#0" to="27499527#1" fromLane="0" toLane="0" tl="301905874" linkIndex="1"/>
    <connection from="-108962034#0" to="108962034#0" fromLane="0" toLane="0" tl="301905874" linkIndex="2"/>
    <connection from="-112689807" to="1230821487#2" fromLane="0" toLane="0" tl="joinedS_cluster_10121783546_11414553164_12583072487_1817838894_#5more_cluster_1817657740_1817657771" linkIndex="47"/>
    <connection from="-112689807" to="1197473898#0" fromLane="0" toLane="0" tl="joinedS_cluster_10121783546_11414553164_12583072487_1817838894_#5more_cluster_1817657740_1817657771" linkIndex="39"/>
    <connection from="-112689807" to="1197473899#0" fromLane="0" toLane="0" tl="joinedS_cluster_10121783546_11414553164_12583072487_1817838894_#5more_cluster_1817657740_1817657771" linkIndex="40"/>
    <connection from="-112689807" to="170618603#0" fromLane="0" toLane="0" tl="joinedS_cluster_10121783546_11414553164_12583072487_1817838894_#5more_cluster_1817657740_1817657771" linkIndex="41"/>
    <connection from="-112689807" to="-1230821488" fromLane="0" toLane="0" tl="joinedS_cluster_10121783546_11414553164_12583072487_1817838894_#5more_cluster_1817657740_1817657771" linkIndex="42"/>
    <connection from="-112689807" to="-1230821486#0" fromLane="0" toLane="0" tl="joinedS_cluster_10121783546_11414553164_12583072487_1817838894_#5more_cluster_1817657740_1817657771" linkIndex="43"/>
    <connection from="-112689807" to="1230821486#1" fromLane="0" toLane="0" tl="joinedS_cluster_10121783546_11414553164_12583072487_1817838894_#5more_cluster_1817657740_1817657771" linkIndex="44"/>
    <connection from="-112689807" to="-1000499904#1" fromLane="0" toLane="0" tl="joinedS_cluster_10121783546_11414553164_12583072487_1817838894_#5more_cluster_1817657740_1817657771" linkIndex="45"/>
    <connection from="-112689807" to="-44221237#0" fromLane="0" toLane="0" tl="joinedS_cluster_10121783546_11414553164_12583072487_1817838894_#5more_cluster_1817657740_1817657771" linkIndex="46"/>
    <connection from="-1197473899#0" to="170618603#0" fromLane="0" toLane="0" tl="joinedS_cluster_10121783546_11414553164_12583072487_1817838894_#5more_cluster_1817657740_1817657771" linkIndex="11"/>
    <connection from="-1197473899#0" to="-1230821488" fromLane="0" toLane="0" tl="joinedS_cluster_10121783546_11414553164_12583072487_1817838894_#5more_cluster_1817657740_1817657771" linkIndex="12"/>
    <connection from="-1197473899#0" to="-1230821486#0" fromLane="0" toLane="0" tl="joinedS_cluster_10121783546_11414553164_12583072487_1817838894_#5more_cluster_1817657740_1817657771" linkIndex="13"/>
    <connection from="-1197473899#0" to="1230821486#1" fromLane="0" toLane="0" tl="joinedS_cluster_10121783546_11414553164_12583072487_1817838894_#5more_cluster_1817657740_1817657771" linkIndex="14"/>
    <connection from="-1197473899#0" to="-1000499904#1" fromLane="0" toLane="0" tl="joinedS_cluster_10121783546_11414553164_12583072487_1817838894_#5more_cluster_1817657740_1817657771" linkIndex="15"/>