<?xml version="1.0" encoding="UTF-8"?>

<!-- generated on 2025-04-04 16:24:30 by Eclipse SUMO netconvert Version 1.19.0
<configuration xmlns:xsi="http://www.w3.org/2001/XMLSchema-instance" xsi:noNamespaceSchemaLocation="http://sumo.dlr.de/xsd/netconvertConfiguration.xsd">

    <input>
        <sumo-net-file value="melun/melun.net.xml"/>
    </input>

    <output>
        <plain-output-prefix value="melun/melun"/>
    </output>

    <processing>
        <geometry.min-radius.fix.railways value="false"/>
        <geometry.max-grade.fix value="false"/>
        <offset.disable-normalization value="true"/>
        <lefthand value="0"/>
    </processing>

    <tls_building>
        <tls.ignore-internal-junction-jam value="1"/>
    </tls_building>

    <junctions>
        <no-turnarounds value="true"/>
        <junctions.corner-detail value="5"/>
        <junctions.limit-turn-speed value="5.50"/>
        <rectangular-lane-cut value="0"/>
    </junctions>

    <pedestrian>
        <walkingareas value="0"/>
    </pedestrian>

</configuration>
-->

<nodes version="1.16" xmlns:xsi="http://www.w3.org/2001/XMLSchema-instance" xsi:noNamespaceSchemaLocation="http://sumo.dlr.de/xsd/nodes_file.xsd">
    <location netOffset="-468277.84,-5368862.63" convBoundary="0.00,0.00,12874.05,11266.70" origBoundary="2.570406,48.472341,4.272917,48.852436" projParameter="+proj=utm +zone=31 +ellps=WGS84 +datum=WGS84 +units=m +no_defs"/>

    <node id="10003977732" x="8385.58" y="7690.22" type="priority"/>
    <node id="10017945434" x="6277.62" y="9431.82" type="priority"/>
    <node id="10017945435" x="6443.70" y="9472.89" type="priority"/>
    <node id="10017945437" x="6437.27" y="9416.90" type="priority"/>
    <node id="10017945438" x="6512.71" y="9424.85" type="priority"/>
    <node id="10017945441" x="6390.31" y="9481.35" type="priority"/>
    <node id="10017945442" x="6342.49" y="9422.26" type="priority"/>
    <node id="10017945443" x="6347.92" y="9375.75" type="priority"/>
    <node id="10017945444" x="6360.89" y="9375.80" type="priority"/>
    <node id="10017945445" x="6335.93" y="9372.76" type="priority"/>
    <node id="10017945447" x="6291.14" y="9490.77" type="priority"/>
    <node id="10022709744" x="1323.65" y="6054.23" type="priority"/>
    <node id="10022709745" x="1331.34" y="6077.07" type="priority"/>
    <node id="10036055553" x="4848.12" y="7745.76" type="right_before_left"/>
    <node id="10036055554" x="4859.78" y="7747.52" type="priority"/>
    <node id="10036055567" x="4830.08" y="7712.20" type="priority"/>
    <node id="10036055568" x="4831.08" y="7704.47" type="dead_end"/>
    <node id="10038124147" x="5039.59" y="8286.99" type="dead_end"/>
    <node id="10083063349" x="6101.67" y="8044.73" type="right_before_left"/>
    <node id="10083063350" x="6137.10" y="8066.62" type="right_before_left"/>
    <node id="10083063353" x="6030.13" y="8218.30" type="priority"/>
    <node id="10083063367" x="6101.72" y="8024.71" type="right_before_left"/>
    <node id="10083063368" x="6050.41" y="8179.40" type="right_before_left"/>
    <node id="10083063369" x="6065.84" y="8097.16" type="priority"/>
    <node id="10083063370" x="6096.76" y="8013.27" type="priority"/>
    <node id="10083096970" x="6371.29" y="7979.50" type="priority"/>
    <node id="10083096976" x="6546.74" y="8100.49" type="priority"/>
    <node id="10083096978" x="6549.97" y="8099.06" type="dead_end"/>
    <node id="10083096984" x="6533.17" y="8107.09" type="dead_end"/>
    <node id="10083097828" x="6415.10" y="7968.03" type="dead_end"/>
    <node id="10083097829" x="6421.03" y="7995.00" type="priority"/>
    <node id="10083097845" x="6409.38" y="7910.44" type="dead_end"/>
    <node id="10083097848" x="6413.22" y="7927.47" type="dead_end"/>
    <node id="10083097855" x="6401.72" y="7919.53" type="dead_end"/>
    <node id="10083097857" x="6392.55" y="7913.45" type="dead_end"/>
    <node id="10083097858" x="6394.89" y="7908.61" type="dead_end"/>
    <node id="10083097859" x="6439.84" y="7897.93" type="dead_end"/>
    <node id="10083097870" x="6475.19" y="7863.70" type="dead_end"/>
    <node id="10083097882" x="6273.04" y="7841.80" type="dead_end"/>
    <node id="10089775121" x="7533.42" y="7863.08" type="priority"/>
    <node id="10097879317" x="5104.07" y="8604.53" type="priority"/>
    <node id="10097879323" x="4796.14" y="8794.26" type="priority"/>
    <node id="10097879324" x="4793.93" y="8808.36" type="priority"/>
    <node id="10097879326" x="4453.54" y="8966.49" type="priority"/>
    <node id="10098151575" x="7208.10" y="6644.37" type="priority"/>
    <node id="10101118798" x="5043.68" y="5491.01" type="priority"/>
    <node id="10110597011" x="2581.37" y="4335.15" type="priority"/>
    <node id="10110597014" x="2438.32" y="4274.09" type="priority"/>
    <node id="10110597015" x="2412.01" y="4054.13" type="priority"/>
    <node id="10110597016" x="2409.94" y="4020.91" type="priority"/>
    <node id="10121783560" x="4569.72" y="7300.80" type="priority"/>
    <node id="10121783566" x="4663.52" y="7361.81" type="dead_end"/>
    <node id="10121783568" x="4605.41" y="7331.95" type="right_before_left"/>
    <node id="10121783572" x="4676.11" y="7351.29" type="dead_end"/>
    <node id="10121783573" x="4675.55" y="7366.19" type="dead_end"/>
    <node id="10121783577" x="4730.72" y="7383.23" type="dead_end"/>
    <node id="10121783580" x="4677.35" y="7347.94" type="dead_end"/>
    <node id="1014454375" x="5084.68" y="8271.03" type="dead_end"/>
    <node id="1014454376" x="5088.35" y="8266.51" type="dead_end"/>
    <node id="1014454380" x="5096.71" y="8283.07" type="dead_end"/>
    <node id="1014454383" x="5105.06" y="8266.34" type="dead_end"/>
    <node id="1014454384" x="5115.74" y="8262.62" type="dead_end"/>
    <node id="1014454385" x="5122.17" y="8263.97" type="priority"/>
    <node id="1014454470" x="5034.31" y="8280.25" type="priority"/>
    <node id="1014454483" x="5056.65" y="8324.91" type="right_before_left"/>
    <node id="1014454485" x="5090.06" y="8313.38" type="dead_end"/>
    <node id="1014454491" x="5114.91" y="8304.19" type="dead_end"/>
    <node id="1014454499" x="5045.42" y="8282.96" type="priority"/>
    <node id="1015806962" x="2533.86" y="5206.49" type="priority"/>
    <node id="1015806974" x="2834.95" y="5480.61" type="priority"/>
    <node id="1015806981" x="2452.54" y="5050.20" type="priority"/>
    <node id="1015806984" x="2565.96" y="5074.30" type="priority"/>
    <node id="1015806988" x="2654.30" y="5099.16" type="priority"/>
    <node id="1015806992" x="2393.84" y="5026.65" type="priority"/>
    <node id="10172123364" x="5321.14" y="7966.04" type="priority"/>
    <node id="10172123371" x="5319.45" y="8045.90" type="priority"/>
    <node id="10172129820" x="5144.90" y="7945.84" type="priority"/>
    <node id="10172129827" x="4849.23" y="7902.05" type="traffic_light" tl="joinedS_10172129827_cluster_10172129832_10172129833_1473487167_1473487172_#6more" controlledInner="1111856315#9"/>
    <node id="10172129828" x="4824.56" y="7899.28" type="priority"/>
    <node id="10172129829" x="4779.71" y="7893.14" type="priority"/>
    <node id="10172129843" x="5147.26" y="7934.75" type="priority"/>
    <node id="10172129847" x="5164.00" y="7922.40" type="dead_end"/>
    <node id="10172129849" x="5180.56" y="7835.14" type="priority"/>
    <node id="10172129852" x="5191.00" y="7787.16" type="priority"/>
    <node id="10172129853" x="5205.47" y="7689.26" type="priority"/>
    <node id="10172129855" x="5211.18" y="7649.82" type="priority"/>
    <node id="10172129857" x="5234.97" y="7491.12" type="priority"/>
    <node id="10172129859" x="5242.74" y="7481.35" type="priority"/>
    <node id="10172129860" x="5240.16" y="7491.57" type="priority"/>
    <node id="10172129862" x="5216.76" y="7650.70" type="priority"/>
    <node id="10172129863" x="5211.16" y="7689.81" type="priority"/>
    <node id="10172129867" x="5188.96" y="7837.96" type="priority"/>
    <node id="10172129870" x="5175.55" y="7924.47" type="priority"/>
    <node id="10172129873" x="5158.43" y="7962.83" type="priority"/>
    <node id="10172129874" x="5154.28" y="7989.91" type="priority"/>
    <node id="10172129881" x="5126.47" y="8216.40" type="priority"/>
    <node id="10172129889" x="5155.39" y="8067.18" type="priority"/>
    <node id="10172129894" x="5167.16" y="7991.63" type="dead_end"/>
    <node id="10172129910" x="5135.77" y="7962.01" type="dead_end"/>
    <node id="10172129913" x="5187.82" y="7940.63" type="priority"/>
    <node id="10172138895" x="5241.89" y="7491.69" type="dead_end"/>
    <node id="10172138900" x="5339.97" y="7477.81" type="dead_end"/>
    <node id="10172138906" x="5218.93" y="7471.35" type="dead_end"/>
    <node id="10172138907" x="5348.16" y="7545.79" type="right_before_left"/>
    <node id="10172138909" x="5318.47" y="7509.41" type="priority"/>
    <node id="10172240825" x="5938.41" y="7902.89" type="right_before_left"/>
    <node id="10172240836" x="5788.47" y="8417.36" type="priority"/>
    <node id="10172240847" x="5383.68" y="8818.99" type="priority"/>
    <node id="10172240852" x="5419.51" y="8610.83" type="priority"/>
    <node id="10172240854" x="5361.30" y="8703.32" type="priority"/>
    <node id="10172240855" x="5384.75" y="8717.57" type="priority"/>
    <node id="10172240857" x="5361.83" y="8711.02" type="priority"/>
    <node id="10172240862" x="5361.02" y="8719.27" type="priority"/>
    <node id="10172240882" x="5852.57" y="8802.87" type="priority"/>
    <node id="10172275043" x="7154.86" y="8594.28" type="priority"/>
    <node id="10172275048" x="7158.43" y="8600.59" type="priority"/>
    <node id="10201890718" x="8514.72" y="5140.07" type="dead_end"/>
    <node id="10201890724" x="8645.41" y="5123.54" type="priority"/>
    <node id="1020699557" x="3382.56" y="6781.53" type="priority"/>
    <node id="1020699567" x="3368.62" y="6766.72" type="priority"/>
    <node id="1020699582" x="3374.96" y="6753.16" type="priority"/>
    <node id="1020699726" x="3217.15" y="6586.05" type="priority"/>
    <node id="1020715214" x="3457.10" y="6570.73" type="priority"/>
    <node id="1020755091" x="2643.41" y="5338.40" type="priority"/>
    <node id="1020755131" x="3878.26" y="6018.85" type="priority"/>
    <node id="1020755136" x="3841.33" y="6061.92" type="priority"/>
    <node id="1020755155" x="3944.16" y="6201.27" type="priority"/>
    <node id="1020755177" x="3896.77" y="6242.97" type="priority"/>
    <node id="1020770782" x="1441.14" y="6667.33" type="priority"/>
    <node id="1020770798" x="1599.14" y="6558.24" type="priority"/>
    <node id="1020770801" x="1543.67" y="6460.09" type="priority"/>
    <node id="1020770804" x="1527.34" y="6431.89" type="priority"/>
    <node id="1020770848" x="1401.41" y="6244.18" type="priority"/>
    <node id="1020770855" x="1388.71" y="6240.70" type="priority"/>
    <node id="1020770883" x="1621.20" y="6386.09" type="priority"/>
    <node id="1020770891" x="1691.31" y="6349.98" type="priority"/>
    <node id="1020770894" x="1740.91" y="6311.02" type="priority"/>
    <node id="1020770916" x="1545.95" y="6609.76" type="priority"/>
    <node id="1020775615" x="1271.16" y="6059.82" type="priority"/>
    <node id="1020775634" x="1093.17" y="5878.33" type="priority"/>
    <node id="1020787587" x="1508.73" y="6015.41" type="priority"/>
    <node id="1020787615" x="1616.07" y="6194.79" type="priority"/>
    <node id="1020787642" x="1766.63" y="6155.92" type="priority"/>
    <node id="1020787662" x="1583.35" y="6141.97" type="priority"/>
    <node id="1020787673" x="1644.01" y="6253.25" type="priority"/>
    <node id="1020787713" x="1560.93" y="6114.93" type="priority"/>
    <node id="10269361625" x="11991.93" y="5680.30" type="priority"/>
    <node id="10272094056" x="5229.66" y="6632.13" type="priority"/>
    <node id="10275264110" x="1243.72" y="5642.96" type="priority"/>
    <node id="10275264115" x="1086.54" y="5550.31" type="priority"/>
    <node id="10287960816" x="8298.11" y="6511.75" type="right_before_left"/>
    <node id="10287960817" x="8200.18" y="6229.06" type="priority"/>
    <node id="10287960818" x="8193.08" y="6217.53" type="dead_end"/>
    <node id="10287965612" x="8673.67" y="5331.80" type="dead_end"/>
    <node id="10287965635" x="8825.80" y="5497.93" type="priority"/>
    <node id="10287965672" x="8672.47" y="5930.44" type="priority"/>
    <node id="10287965673" x="8697.94" y="5965.64" type="priority"/>
    <node id="10287965674" x="8658.27" y="5956.49" type="priority"/>
    <node id="10287965675" x="8651.77" y="5990.01" type="priority"/>
    <node id="10287965676" x="8688.31" y="5996.54" type="priority"/>
    <node id="10287965677" x="8707.08" y="5936.34" type="priority"/>
    <node id="10287965680" x="8365.49" y="5995.73" type="priority"/>
    <node id="10287965683" x="8103.43" y="6136.81" type="priority"/>
    <node id="10287965711" x="8379.84" y="6516.30" type="right_before_left"/>
    <node id="10287965713" x="8288.92" y="6465.37" type="right_before_left"/>
    <node id="10287965714" x="8287.05" y="6511.35" type="right_before_left"/>
    <node id="10287965717" x="8262.09" y="6557.27" type="right_before_left"/>
    <node id="10287965718" x="8239.31" y="6509.97" type="right_before_left"/>
    <node id="10287965720" x="8264.85" y="6464.46" type="right_before_left"/>
    <node id="10287965724" x="8296.10" y="6555.84" type="right_before_left"/>
    <node id="10287965725" x="8335.75" y="6557.55" type="right_before_left"/>
    <node id="10287965726" x="8341.19" y="6453.11" type="right_before_left"/>
    <node id="10287965727" x="8340.33" y="6467.79" type="right_before_left"/>
    <node id="10287965728" x="8300.12" y="6465.30" type="right_before_left"/>
    <node id="10287965729" x="8295.50" y="6568.90" type="priority"/>
    <node id="10287965781" x="8281.81" y="6387.43" type="priority"/>
    <node id="10287965825" x="9475.91" y="6097.19" type="right_before_left"/>
    <node id="10287965826" x="9516.56" y="6101.81" type="priority"/>
    <node id="10287965871" x="9249.31" y="5794.64" type="right_before_left"/>
    <node id="10287965876" x="9241.16" y="6208.40" type="right_before_left"/>
    <node id="10287965877" x="9205.30" y="6145.95" type="priority"/>
    <node id="10287965878" x="9195.16" y="6186.02" type="priority"/>
    <node id="10288122771" x="6624.78" y="4078.67" type="priority"/>
    <node id="10288122777" x="6675.42" y="4072.94" type="priority"/>
    <node id="10288122784" x="6935.48" y="4173.84" type="priority"/>
    <node id="10288122787" x="6896.24" y="4175.29" type="priority"/>
    <node id="10288214625" x="4767.08" y="5254.58" type="priority"/>
    <node id="10288214626" x="6883.26" y="5133.13" type="priority"/>
    <node id="10288214650" x="4804.02" y="5231.65" type="priority"/>
    <node id="10288214651" x="4812.51" y="5218.27" type="priority"/>
    <node id="10288214655" x="4741.45" y="5189.91" type="priority"/>
    <node id="10288214697" x="3977.98" y="4526.03" type="priority"/>
    <node id="10288214698" x="3568.37" y="4552.45" type="priority"/>
    <node id="10288214699" x="3532.62" y="4580.53" type="right_before_left"/>
    <node id="10288214700" x="3237.65" y="3898.94" type="priority"/>
    <node id="10288214703" x="3285.64" y="3890.76" type="priority"/>
    <node id="10288214704" x="3299.50" y="3906.33" type="priority"/>
    <node id="10288214708" x="4068.06" y="4166.69" type="right_before_left"/>
    <node id="10288264809" x="4072.79" y="4228.65" type="priority"/>
    <node id="10288264810" x="4045.77" y="4230.35" type="priority"/>
    <node id="10288264811" x="4070.65" y="4166.49" type="priority"/>
    <node id="10288264812" x="4031.55" y="4170.70" type="priority"/>
    <node id="10288264813" x="4065.82" y="4111.60" type="priority"/>
    <node id="10288264814" x="4027.96" y="4113.49" type="priority"/>
    <node id="10288264816" x="4114.06" y="4084.51" type="priority"/>
    <node id="10288264817" x="4144.18" y="3993.94" type="priority"/>
    <node id="10288264820" x="4127.52" y="3916.15" type="priority"/>
    <node id="10288264821" x="4112.88" y="3970.15" type="dead_end"/>
    <node id="10288264823" x="4099.14" y="4003.36" type="priority"/>
    <node id="10288264830" x="3843.93" y="4835.93" type="dead_end"/>
    <node id="10288264832" x="3851.50" y="4772.85" type="priority"/>
    <node id="10288264834" x="4209.45" y="4620.07" type="right_before_left"/>
    <node id="10288264835" x="4080.83" y="4729.56" type="priority"/>
    <node id="10288264839" x="4168.32" y="4716.58" type="dead_end"/>
    <node id="10288264845" x="4165.78" y="4618.41" type="priority"/>
    <node id="10288264852" x="4208.60" y="4742.65" type="dead_end"/>
    <node id="10288264856" x="4209.57" y="4675.05" type="dead_end"/>
    <node id="10288264858" x="4240.17" y="4663.84" type="priority"/>
    <node id="10288264859" x="4300.17" y="4653.10" type="priority"/>
    <node id="10288264862" x="4517.60" y="4805.78" type="right_before_left"/>
    <node id="10288264877" x="4844.68" y="4776.57" type="priority"/>
    <node id="10288264878" x="4869.65" y="4780.65" type="priority"/>
    <node id="10288264879" x="4853.16" y="4790.11" type="right_before_left"/>
    <node id="10288264880" x="4861.40" y="4804.84" type="right_before_left"/>
    <node id="10288264881" x="4878.39" y="4795.42" type="priority"/>
    <node id="10288264897" x="4850.17" y="5056.94" type="priority"/>
    <node id="10288264903" x="4844.11" y="4829.55" type="priority"/>
    <node id="10288264904" x="4738.91" y="4805.49" type="priority"/>
    <node id="10288264927" x="5293.63" y="4890.38" type="priority"/>
    <node id="10288264955" x="6668.46" y="5040.09" type="priority"/>
    <node id="10288264956" x="6766.75" y="5037.48" type="priority"/>
    <node id="10288264961" x="6646.75" y="5312.61" type="priority"/>
    <node id="10288264964" x="6702.39" y="5408.75" type="priority"/>
    <node id="10289628019" x="9950.86" y="8404.84" type="priority"/>
    <node id="10289628026" x="10287.84" y="8519.20" type="priority"/>
    <node id="10289628030" x="9613.88" y="8235.68" type="right_before_left"/>
    <node id="10289628031" x="9519.52" y="8244.84" type="priority"/>
    <node id="10289628033" x="9646.74" y="8099.44" type="right_before_left"/>
    <node id="10289628034" x="9867.64" y="8102.28" type="priority"/>
    <node id="10289628037" x="9579.54" y="8545.60" type="priority"/>
    <node id="10289628038" x="9730.51" y="8503.02" type="priority"/>
    <node id="10289628041" x="9750.56" y="8450.07" type="priority"/>
    <node id="10289656105" x="7881.12" y="8801.30" type="priority"/>
    <node id="10289656108" x="7949.17" y="8911.27" type="right_before_left"/>
    <node id="10289678213" x="7975.30" y="8970.23" type="right_before_left"/>
    <node id="10289678214" x="8061.55" y="8957.24" type="priority"/>
    <node id="10289678267" x="8314.36" y="9105.18" type="priority"/>
    <node id="10289678268" x="8768.13" y="8749.42" type="priority"/>
    <node id="10289678276" x="8610.76" y="8917.67" type="priority"/>
    <node id="10289678277" x="8588.47" y="8970.19" type="priority"/>
    <node id="10289678278" x="8522.80" y="9030.66" type="priority"/>
    <node id="10289726396" x="4032.91" y="7961.28" type="right_before_left"/>
    <node id="10289726397" x="3655.34" y="8190.47" type="priority"/>
    <node id="10289726401" x="3571.11" y="8205.25" type="dead_end"/>
    <node id="10289726403" x="3521.26" y="8211.41" type="priority"/>
    <node id="10289726404" x="3567.95" y="8196.11" type="dead_end"/>
    <node id="10289726405" x="3557.54" y="8167.32" type="right_before_left"/>
    <node id="10289726406" x="3533.13" y="8098.92" type="priority"/>
    <node id="10289726407" x="3538.37" y="8139.71" type="dead_end"/>
    <node id="10289726408" x="3550.73" y="8169.62" type="right_before_left"/>
    <node id="10289778332" x="7882.57" y="7984.74" type="right_before_left"/>
    <node id="10289778333" x="7882.84" y="8001.77" type="priority"/>
    <node id="10289778359" x="4819.81" y="8016.80" type="priority"/>
    <node id="10289778362" x="4810.59" y="8079.01" type="priority"/>
    <node id="10289778363" x="5001.81" y="8176.89" type="priority"/>
    <node id="10289778364" x="5000.35" y="8210.65" type="right_before_left"/>
    <node id="10289778365" x="5464.07" y="8438.25" type="right_before_left"/>
    <node id="10289778366" x="5462.04" y="8456.97" type="right_before_left"/>
    <node id="10289778367" x="5447.25" y="8435.94" type="right_before_left"/>
    <node id="10289778368" x="5445.11" y="8463.59" type="right_before_left"/>
    <node id="10289778373" x="5377.77" y="8784.72" type="priority"/>
    <node id="10289778421" x="7784.37" y="8425.82" type="priority"/>
    <node id="10289778425" x="7775.99" y="8331.30" type="priority"/>
    <node id="10289778465" x="7575.54" y="8554.51" type="priority"/>
    <node id="10289778475" x="7578.36" y="8480.41" type="priority"/>
    <node id="10289778487" x="7627.45" y="8441.18" type="priority"/>
    <node id="10290075471" x="2321.66" y="9161.47" type="priority"/>
    <node id="10290075472" x="2216.80" y="8869.23" type="dead_end"/>
    <node id="10290075475" x="2271.44" y="9007.46" type="priority"/>
    <node id="10290075477" x="2257.37" y="8991.93" type="priority"/>
    <node id="10290075483" x="1667.44" y="9459.24" type="priority"/>
    <node id="10290075492" x="2047.15" y="8531.96" type="priority"/>
    <node id="10290075493" x="2131.85" y="8482.14" type="priority"/>
    <node id="10290075495" x="2064.37" y="8372.55" type="priority"/>
    <node id="10290255173" x="2840.04" y="9501.27" type="priority" fringe="inner">
        <param key="buffer_stop" value="true"/>
    </node>
    <node id="10290255179" x="2725.98" y="9423.71" type="priority"/>
    <node id="10290255182" x="2739.65" y="9445.55" type="priority"/>
    <node id="10291490085" x="1035.33" y="7729.86" type="priority"/>
    <node id="10307584194" x="6259.63" y="5441.53" type="dead_end"/>
    <node id="10307584196" x="6259.07" y="5444.31" type="dead_end"/>
    <node id="10307584197" x="6333.97" y="5074.11" type="dead_end"/>
    <node id="10307584198" x="6291.99" y="5281.63" type="dead_end"/>
    <node id="10307607273" x="6333.21" y="5077.83" type="dead_end"/>
    <node id="10560367265" x="2466.85" y="4604.71" type="dead_end"/>
    <node id="10560367266" x="2485.99" y="4605.27" type="dead_end"/>
    <node id="10560367278" x="2505.67" y="4582.71" type="dead_end"/>
    <node id="10560367286" x="2514.12" y="4605.78" type="priority"/>
    <node id="10560367296" x="2566.76" y="4589.45" type="priority"/>
    <node id="10560367300" x="2494.78" y="4582.07" type="dead_end"/>
    <node id="10560367303" x="2491.32" y="4567.49" type="dead_end"/>
    <node id="10560367307" x="2477.86" y="4577.49" type="dead_end"/>
    <node id="10560385513" x="2524.41" y="4573.11" type="dead_end"/>
    <node id="10560385517" x="2523.54" y="4578.86" type="dead_end"/>
    <node id="10560385518" x="2531.33" y="4579.03" type="dead_end"/>
    <node id="10560385521" x="2511.39" y="4568.89" type="dead_end"/>
    <node id="10560385522" x="2482.21" y="4570.74" type="dead_end"/>
    <node id="10560385532" x="2501.23" y="4546.26" type="dead_end"/>
    <node id="10560385533" x="2500.37" y="4580.13" type="dead_end"/>
    <node id="10560385534" x="2500.80" y="4567.71" type="dead_end"/>
    <node id="10612302809" x="4038.90" y="4885.00" type="priority"/>
    <node id="10612302810" x="4036.00" y="4898.74" type="priority"/>
    <node id="10612302830" x="5413.01" y="8296.59" type="priority"/>
    <node id="10612302831" x="5376.60" y="8282.40" type="priority"/>
    <node id="10612302841" x="5442.51" y="8493.86" type="priority"/>
    <node id="10612302846" x="5450.38" y="8581.96" type="priority"/>
    <node id="10612302858" x="5127.79" y="9271.28" type="priority"/>
    <node id="1076077110" x="7654.84" y="9964.31" type="priority"/>
    <node id="1078774954" x="4391.36" y="9642.18" type="right_before_left"/>
    <node id="1078774992" x="4177.88" y="9695.05" type="right_before_left"/>
    <node id="1078775148" x="4106.48" y="9724.57" type="priority"/>
    <node id="1078775217" x="4886.06" y="9419.22" type="right_before_left"/>
    <node id="10862057449" x="6119.19" y="5634.36" type="right_before_left"/>
    <node id="10862057450" x="6110.59" y="5632.65" type="right_before_left"/>
    <node id="10862057451" x="6108.47" y="5641.97" type="priority"/>
    <node id="10862057454" x="6057.84" y="5639.22" type="priority"/>
    <node id="10862057457" x="6004.19" y="5598.12" type="priority"/>
    <node id="10870595481" x="7276.88" y="8988.94" type="priority"/>
    <node id="10961554503" x="6455.91" y="7188.50" type="priority"/>
    <node id="10961582911" x="6508.18" y="7190.01" type="dead_end"/>
    <node id="10961582912" x="6510.83" y="7189.68" type="dead_end"/>
    <node id="10988842441" x="7542.84" y="6731.99" type="priority"/>
    <node id="10988842442" x="7559.61" y="6694.11" type="right_before_left"/>
    <node id="10988842447" x="7541.83" y="6668.36" type="right_before_left"/>
    <node id="10988842448" x="7572.17" y="6681.30" type="right_before_left"/>
    <node id="1104866350#1-AddedOnRampNode" x="2614.17" y="4341.38" type="priority"/>
    <node id="11050460159" x="6279.41" y="6525.05" type="priority"/>
    <node id="11050460160" x="6226.53" y="6541.74" type="priority"/>
    <node id="11051202129" x="6438.67" y="8960.04" type="priority"/>
    <node id="11051202131" x="6426.12" y="8960.14" type="traffic_light" tl="11051202131"/>
    <node id="11067016255" x="2910.26" y="4371.03" type="priority"/>
    <node id="11067016256" x="2926.95" y="4367.92" type="priority"/>
    <node id="11067016257" x="2955.80" y="4362.68" type="priority"/>
    <node id="11067016278" x="2834.48" y="4197.48" type="priority"/>
    <node id="11067016301" x="3216.16" y="4440.33" type="priority"/>
    <node id="11093053575" x="6540.02" y="9139.12" type="priority"/>
    <node id="11093053577" x="6555.79" y="9143.74" type="right_before_left"/>
    <node id="11093053578" x="6541.74" y="9161.12" type="priority"/>
    <node id="11093053579" x="6582.15" y="9151.95" type="priority"/>
    <node id="11093053580" x="6567.87" y="9147.86" type="right_before_left"/>
    <node id="11093053581" x="6579.60" y="9160.98" type="priority"/>
    <node id="11093053582" x="6575.99" y="9174.27" type="priority"/>
    <node id="11093053583" x="6605.83" y="9174.21" type="priority"/>
    <node id="11093053585" x="6576.88" y="9167.32" type="right_before_left"/>
    <node id="11093053586" x="6542.40" y="9158.90" type="right_before_left"/>
    <node id="11093053589" x="6511.11" y="9146.31" type="priority"/>
    <node id="11093053591" x="6568.63" y="9137.67" type="right_before_left"/>
    <node id="11093053592" x="6566.95" y="9160.17" type="right_before_left"/>
    <node id="11093053594" x="6554.05" y="9192.92" type="priority"/>
    <node id="11110391643" x="4287.47" y="6917.87" type="dead_end"/>
    <node id="11125493884" x="3463.99" y="6875.71" type="dead_end"/>
    <node id="11142114366" x="8626.90" y="2068.21" type="right_before_left"/>
    <node id="11142114380" x="8707.84" y="2115.03" type="right_before_left"/>
    <node id="11142114383" x="8868.48" y="2189.46" type="priority"/>
    <node id="11142114389" x="8718.24" y="1999.77" type="priority"/>
    <node id="11142114390" x="8766.90" y="2064.63" type="right_before_left"/>
    <node id="11158631738" x="9816.98" y="8512.98" type="priority"/>
    <node id="11163530483" x="8736.89" y="2038.04" type="right_before_left"/>
    <node id="11163530488" x="8734.58" y="2081.27" type="right_before_left"/>
    <node id="11163530489" x="8714.79" y="2054.92" type="right_before_left"/>
    <node id="11163530490" x="8694.78" y="2027.97" type="right_before_left"/>
    <node id="11163530491" x="8656.61" y="2098.80" type="priority" fringe="inner">
        <param key="buffer_stop" value="true"/>
    </node>
    <node id="11163530492" x="8705.49" y="2104.85" type="priority" fringe="inner">
        <param key="buffer_stop" value="true"/>
    </node>
    <node id="11163530495" x="8670.95" y="2118.76" type="priority" fringe="inner">
        <param key="buffer_stop" value="true"/>
    </node>
    <node id="11163530496" x="8698.49" y="2095.37" type="right_before_left"/>
    <node id="11163530498" x="8646.33" y="2087.26" type="priority" fringe="inner">
        <param key="buffer_stop" value="true"/>
    </node>
    <node id="11163530499" x="8642.53" y="2082.14" type="priority" fringe="inner">
        <param key="buffer_stop" value="true"/>
    </node>
    <node id="11163530501" x="8638.91" y="2076.80" type="priority" fringe="inner">
        <param key="buffer_stop" value="true"/>
    </node>
    <node id="11163530503" x="8638.08" y="2069.73" type="priority" fringe="inner">
        <param key="buffer_stop" value="true"/>
    </node>
    <node id="11163606008" x="8675.29" y="2042.61" type="priority"/>
    <node id="11163606010" x="8689.68" y="2021.39" type="priority"/>
    <node id="11171358006" x="7191.97" y="3572.65" type="rail_signal"/>
    <node id="11171358007" x="7191.80" y="3610.11" type="rail_signal"/>
    <node id="11171358008" x="7195.92" y="3610.13" type="rail_signal"/>
    <node id="11171358009" x="7141.51" y="4360.34" type="rail_signal"/>
    <node id="11171358010" x="7138.13" y="4359.96" type="rail_signal"/>
    <node id="11177852318" x="8767.65" y="1966.54" type="priority"/>
    <node id="11186808772" x="8869.06" y="1904.23" type="priority"/>
    <node id="11186808774" x="8897.21" y="1962.65" type="priority"/>
    <node id="11204474260" x="7025.50" y="8355.23" type="right_before_left"/>
    <node id="11204525717" x="8810.95" y="4245.20" type="right_before_left"/>
    <node id="11204525721" x="8795.33" y="4234.22" type="right_before_left"/>
    <node id="11204525728" x="8803.15" y="4258.69" type="right_before_left"/>
    <node id="11204525731" x="8875.48" y="4231.22" type="priority"/>
    <node id="11204528883" x="6997.18" y="4288.52" type="right_before_left"/>