<?xml version="1.0" encoding="UTF-8"?>

<!-- generated on 2025-04-09 03:45:37 by Eclipse SUMO netconvert Version 1.19.0
<configuration xmlns:xsi="http://www.w3.org/2001/XMLSchema-instance" xsi:noNamespaceSchemaLocation="http://sumo.dlr.de/xsd/netconvertConfiguration.xsd">

    <input>
        <sumo-net-file value="othis/othis.net.xml"/>
    </input>

    <output>
        <plain-output-prefix value="othis/othis"/>
    </output>

    <processing>
        <geometry.min-radius.fix.railways value="false"/>
        <geometry.max-grade.fix value="false"/>
        <offset.disable-normalization value="true"/>
        <lefthand value="0"/>
    </processing>

    <tls_building>
        <tls.ignore-internal-junction-jam value="1"/>
    </tls_building>

    <junctions>
        <no-turnarounds value="true"/>
        <junctions.corner-detail value="5"/>
        <junctions.limit-turn-speed value="5.50"/>
        <rectangular-lane-cut value="0"/>
    </junctions>

    <pedestrian>
        <walkingareas value="0"/>
    </pedestrian>

</configuration>
-->

<connections version="1.16" xmlns:xsi="http://www.w3.org/2001/XMLSchema-instance" xsi:noNamespaceSchemaLocation="http://sumo.dlr.de/xsd/connections_file.xsd">
    <connection from="-1016094929#0" to="1016094929#0" fromLane="1" toLane="1"/>

    <connection from="-1016153889#0" to="-1016153890#1" fromLane="0" toLane="0"/>
    <connection from="-1016153889#0" to="-1016153890#1" fromLane="1" toLane="1"/>

    <connection from="-1016153889#1" to="-61421358" fromLane="0" toLane="0"/>
    <connection from="-1016153889#1" to="-1016153889#0" fromLane="0" toLane="0"/>
    <connection from="-1016153889#1" to="-1016153889#0" fromLane="1" toLane="1"/>
    <connection from="-1016153889#1" to="1016153889#1" fromLane="1" toLane="1"/>

    <connection from="-1016153889#2" to="-1016153889#1" fromLane="0" toLane="0"/>
    <connection from="-1016153889#2" to="-1016153889#1" fromLane="1" toLane="1"/>
    <connection from="-1016153889#2" to="39223173#0" fromLane="1" toLane="0"/>
    <connection from="-1016153889#2" to="1016153889#2" fromLane="1" toLane="1"/>

    <connection from="-1016153889#3" to="-1016153889#2" fromLane="0" toLane="0"/>
    <connection from="-1016153889#3" to="-1016153889#2" fromLane="1" toLane="1"/>
    <connection from="-1016153889#3" to="707197530#0" fromLane="1" toLane="0"/>

    <connection from="-1016153890#0" to="-28312997#5" fromLane="0" toLane="0"/>
    <connection from="-1016153890#0" to="-28312997#5" fromLane="1" toLane="1"/>

    <connection from="-1016153890#1" to="-207236707#4" fromLane="0" toLane="0"/>
    <connection from="-1016153890#1" to="-1016153890#0" fromLane="0" toLane="0"/>
    <connection from="-1016153890#1" to="-1016153890#0" fromLane="1" toLane="1"/>
    <connection from="-1016153890#1" to="1016153890#1" fromLane="1" toLane="1"/>

    <connection from="-1016165357#0" to="1016165357#0" fromLane="1" toLane="1"/>

    <connection from="-1016165357#1" to="203252618" fromLane="0" toLane="0"/>
    <connection from="-1016165357#1" to="-1016165357#0" fromLane="0" toLane="0"/>
    <connection from="-1016165357#1" to="-1016165357#0" fromLane="1" toLane="1"/>
    <connection from="-1016165357#1" to="1016165357#1" fromLane="1" toLane="1"/>

    <connection from="-1016165357#2" to="-1016165357#1" fromLane="0" toLane="0"/>
    <connection from="-1016165357#2" to="-1016165357#1" fromLane="1" toLane="1"/>

    <connection from="-1016165357#3" to="-1016165357#2" fromLane="0" toLane="0"/>
    <connection from="-1016165357#3" to="-1016165357#2" fromLane="1" toLane="1"/>

    <connection from="-1016165357#4" to="-1016165357#3" fromLane="0" toLane="0"/>
    <connection from="-1016165357#4" to="-1016165357#3" fromLane="1" toLane="1"/>
    <connection from="-1016165357#4" to="1021761455" fromLane="1" toLane="0"/>
    <connection from="-1016165357#4" to="1016165357#4" fromLane="1" toLane="1"/>

    <connection from="-1017640508" to="-210556105#2" fromLane="0" toLane="0"/>
    <connection from="-1017640508" to="210556105#3" fromLane="0" toLane="0"/>
    <connection from="-1017640508" to="1017640508" fromLane="0" toLane="0"/>

    <connection from="-1017647030" to="1017647030" fromLane="0" toLane="0"/>

    <connection from="-1021761455" to="1016165357#4" fromLane="0" toLane="0"/>
    <connection from="-1021761455" to="-1016165357#3" fromLane="0" toLane="1"/>
    <connection from="-1021761455" to="1021761455" fromLane="0" toLane="0"/>

    <connection from="-1021761456" to="120625275#1" fromLane="0" toLane="0"/>
    <connection from="-1021761456" to="-120625275#0" fromLane="0" toLane="0"/>
    <connection from="-1021761456" to="1021761456" fromLane="0" toLane="0"/>

    <connection from="-1021761462#0" to="-402901183#0" fromLane="0" toLane="0"/>
    <connection from="-1021761462#0" to="402901183#1" fromLane="0" toLane="0"/>
    <connection from="-1021761462#0" to="1021761462#0" fromLane="0" toLane="0"/>

    <connection from="-1021761462#1" to="-1021761462#0" fromLane="0" toLane="0"/>
    <connection from="-1021761462#1" to="1021761462#1" fromLane="0" toLane="0"/>

    <connection from="-1021761468" to="420793334#2" fromLane="0" toLane="0"/>
    <connection from="-1021761468" to="1021761468" fromLane="0" toLane="0"/>

    <connection from="-1021761470" to="170184682#2" fromLane="0" toLane="0"/>
    <connection from="-1021761470" to="-170184682#1" fromLane="0" toLane="0"/>
    <connection from="-1021761470" to="1021761470" fromLane="0" toLane="0"/>

    <connection from="-1055008608" to="1055008608" fromLane="0" toLane="0"/>

    <connection from="-1055008610" to="684410191#1" fromLane="0" toLane="0" visibility="9.00"/>

    <connection from="-1055008611" to="1316037551#3" fromLane="0" toLane="0"/>
    <connection from="-1055008611" to="-1316037551#2" fromLane="0" toLane="0"/>
    <connection from="-1055008611" to="1055008611" fromLane="0" toLane="0"/>

    <connection from="-1055018450" to="-147969325#1" fromLane="0" toLane="0"/>
    <connection from="-1055018450" to="-147969278#1" fromLane="0" toLane="0"/>
    <connection from="-1055018450" to="1055018450" fromLane="0" toLane="0"/>

    <connection from="-1055024544" to="70576178" fromLane="0" toLane="0"/>
    <connection from="-1055024544" to="1055024544" fromLane="0" toLane="0"/>

    <connection from="-1055024545" to="321705818#10" fromLane="0" toLane="0"/>
    <connection from="-1055024545" to="-321705818#9" fromLane="0" toLane="0"/>
    <connection from="-1055024545" to="1055024545" fromLane="0" toLane="0"/>

    <connection from="-1055029206" to="-40459863#0" fromLane="0" toLane="0"/>
    <connection from="-1055029206" to="40459863#1" fromLane="0" toLane="0"/>
    <connection from="-1055029206" to="1055029206" fromLane="0" toLane="0"/>

    <connection from="-1055276702" to="1055276702" fromLane="0" toLane="0"/>

    <connection from="-1055276704" to="756226747#4" fromLane="0" toLane="0"/>
    <connection from="-1055276704" to="-756226747#3" fromLane="0" toLane="0"/>
    <connection from="-1055276704" to="1055276704" fromLane="0" toLane="0"/>

    <connection from="-1055302166" to="321107587" fromLane="0" toLane="0" keepClear="0"/>

    <connection from="-1055305117" to="1055305117" fromLane="0" toLane="0"/>

    <connection from="-1055390310" to="1055390310" fromLane="0" toLane="0"/>

    <connection from="-1055447164" to="1055447164" fromLane="0" toLane="0"/>

    <connection from="-1055605346" to="1055605346" fromLane="0" toLane="0"/>

    <connection from="-1055605347" to="1055605348" fromLane="0" toLane="0"/>
    <connection from="-1055605347" to="1055605347" fromLane="0" toLane="0"/>

    <connection from="-1055605348" to="1055605347" fromLane="0" toLane="0" keepClear="0"/>

    <connection from="-1055634862" to="1055634862" fromLane="0" toLane="0"/>

    <connection from="-1055634863" to="1055634863" fromLane="0" toLane="0"/>

    <connection from="-1055637608" to="1055637608" fromLane="0" toLane="0"/>

    <connection from="-1055639060" to="1055639060" fromLane="0" toLane="0"/>

    <connection from="-1055639061" to="1055639061" fromLane="0" toLane="0"/>

    <connection from="-1055639062" to="299840759#3" fromLane="0" toLane="0"/>
    <connection from="-1055639062" to="-299840759#2" fromLane="0" toLane="0"/>
    <connection from="-1055639062" to="1055639062" fromLane="0" toLane="0"/>

    <connection from="-1055718444" to="1055718444" fromLane="0" toLane="0"/>

    <connection from="-1055718445" to="1055718445" fromLane="0" toLane="0"/>

    <connection from="-1055718446" to="202989664#1" fromLane="0" toLane="0"/>
    <connection from="-1055718446" to="-202989664#0" fromLane="0" toLane="0"/>
    <connection from="-1055718446" to="1055718446" fromLane="0" toLane="0"/>

    <connection from="-1055861501" to="1055861501" fromLane="0" toLane="0"/>

    <connection from="-1055861502" to="190555195#9" fromLane="0" toLane="0"/>
    <connection from="-1055861502" to="-190555195#8" fromLane="0" toLane="0"/>
    <connection from="-1055861502" to="1055861502" fromLane="0" toLane="0"/>

    <connection from="-1055863590" to="190555195#13" fromLane="0" toLane="0"/>
    <connection from="-1055863590" to="-190555195#12" fromLane="0" toLane="0"/>
    <connection from="-1055863590" to="1055863590" fromLane="0" toLane="0"/>

    <connection from="-1055864960" to="-190555193#2" fromLane="0" toLane="0"/>
    <connection from="-1055864960" to="190555193#3" fromLane="0" toLane="0"/>
    <connection from="-1055864960" to="1055864960" fromLane="0" toLane="0"/>

    <connection from="-1055865511" to="40459873#6" fromLane="0" toLane="0"/>
    <connection from="-1055865511" to="-40459873#5" fromLane="0" toLane="0"/>
    <connection from="-1055865511" to="1055865511" fromLane="0" toLane="0"/>

    <connection from="-1055866207" to="1055866207" fromLane="0" toLane="0"/>

    <connection from="-1055866326#0" to="1055866326#0" fromLane="0" toLane="0"/>

    <connection from="-1055866326#1" to="-1055866327" fromLane="0" toLane="0"/>
    <connection from="-1055866326#1" to="-1055866326#0" fromLane="0" toLane="0"/>
    <connection from="-1055866326#1" to="1055866326#1" fromLane="0" toLane="0"/>

    <connection from="-1055866327" to="1055866327" fromLane="0" toLane="0"/>

    <connection from="-1055899353" to="457848001#8" fromLane="0" toLane="0"/>
    <connection from="-1055899353" to="-457848001#7" fromLane="0" toLane="0"/>
    <connection from="-1055899353" to="1055899353" fromLane="0" toLane="0"/>

    <connection from="-1055899354" to="-203097757#1" fromLane="0" toLane="0"/>
    <connection from="-1055899354" to="203097757#2" fromLane="0" toLane="0"/>
    <connection from="-1055899354" to="1055899354" fromLane="0" toLane="0"/>

    <connection from="-1055899855#0" to="-143581651#0" fromLane="0" toLane="0"/>
    <connection from="-1055899855#0" to="-203107632#3" fromLane="0" toLane="0"/>
    <connection from="-1055899855#0" to="143581651#1" fromLane="0" toLane="0"/>

    <connection from="-1055899855#1" to="-1055899855#0" fromLane="0" toLane="0"/>
    <connection from="-1055899855#1" to="203939548#0" fromLane="0" toLane="0"/>

    <connection from="-1055904932" to="203097758#2" fromLane="0" toLane="0"/>
    <connection from="-1055904932" to="-203097758#1" fromLane="0" toLane="0"/>
    <connection from="-1055904932" to="1055904932" fromLane="0" toLane="0"/>

    <connection from="-1056010874" to="-190555197#1" fromLane="0" toLane="0" keepClear="0"/>

    <connection from="-1056141981" to="1056141981" fromLane="0" toLane="0"/>

    <connection from="-1056142767" to="-190555207#7" fromLane="0" toLane="0"/>
    <connection from="-1056142767" to="190555207#8" fromLane="0" toLane="0"/>
    <connection from="-1056142767" to="1056142767" fromLane="0" toLane="0"/>

    <connection from="-1056142768" to="-190555207#8" fromLane="0" toLane="0"/>
    <connection from="-1056142768" to="190555207#9" fromLane="0" toLane="0"/>
    <connection from="-1056142768" to="1056142768" fromLane="0" toLane="0"/>

    <connection from="-1056142769" to="1056142769" fromLane="0" toLane="0"/>

    <connection from="-1056142770" to="1056142770" fromLane="0" toLane="0"/>

    <connection from="-1056143824" to="-49263279#1" fromLane="0" toLane="0"/>
    <connection from="-1056143824" to="49263279#2" fromLane="0" toLane="0"/>
    <connection from="-1056143824" to="1056143824" fromLane="0" toLane="0"/>

    <connection from="-1056143825" to="-49263279#3" fromLane="0" toLane="0"/>
    <connection from="-1056143825" to="49263279#4" fromLane="0" toLane="0"/>
    <connection from="-1056143825" to="1056143825" fromLane="0" toLane="0"/>

    <connection from="-1056145421" to="49263279#11" fromLane="0" toLane="0"/>
    <connection from="-1056145421" to="202968127#0" fromLane="0" toLane="0"/>
    <connection from="-1056145421" to="-49263279#10" fromLane="0" toLane="0"/>
    <connection from="-1056145421" to="1056145421" fromLane="0" toLane="0"/>

    <connection from="-1056146715" to="202728286#3" fromLane="0" toLane="0"/>
    <connection from="-1056146715" to="-202728286#2" fromLane="0" toLane="0"/>
    <connection from="-1056146715" to="1056146715" fromLane="0" toLane="0"/>

    <connection from="-1056146716" to="202728286#1" fromLane="0" toLane="0"/>
    <connection from="-1056146716" to="-202728286#0" fromLane="0" toLane="0"/>
    <connection from="-1056146716" to="1056146716" fromLane="0" toLane="0"/>

    <connection from="-1056404288" to="217033871#1" fromLane="0" toLane="0"/>
    <connection from="-1056404288" to="-217033871#0" fromLane="0" toLane="0"/>
    <connection from="-1056404288" to="1056404288" fromLane="0" toLane="0"/>

    <connection from="-1056564905" to="169484563#1" fromLane="0" toLane="0"/>
    <connection from="-1056564905" to="-169484563#0" fromLane="0" toLane="0"/>
    <connection from="-1056564905" to="1056564905" fromLane="0" toLane="0"/>

    <connection from="-1056564906" to="-169484515#0" fromLane="0" toLane="0"/>
    <connection from="-1056564906" to="169484515#1" fromLane="0" toLane="0"/>
    <connection from="-1056564906" to="1056564906" fromLane="0" toLane="0"/>

    <connection from="-1056830958" to="170184695#4" fromLane="0" toLane="0"/>
    <connection from="-1056830958" to="1056830958" fromLane="0" toLane="0"/>

    <connection from="-1056841439" to="1056841439" fromLane="0" toLane="0"/>

    <connection from="-1058126282" to="24427195#3" fromLane="0" toLane="0"/>
    <connection from="-1058126282" to="-24427195#2" fromLane="0" toLane="0"/>
    <connection from="-1058126282" to="1058126282" fromLane="0" toLane="0"/>

    <connection from="-1058126283" to="-147985326#3" fromLane="0" toLane="0"/>
    <connection from="-1058126283" to="147985326#4" fromLane="0" toLane="0"/>
    <connection from="-1058126283" to="1058126283" fromLane="0" toLane="0"/>

    <connection from="-1058126290" to="-70576194#1" fromLane="0" toLane="0"/>
    <connection from="-1058126290" to="70576194#2" fromLane="0" toLane="0"/>
    <connection from="-1058126290" to="1058126290" fromLane="0" toLane="0"/>

    <connection from="-1058126291" to="120625198#1" fromLane="0" toLane="0"/>
    <connection from="-1058126291" to="-120625198#0" fromLane="0" toLane="0"/>
    <connection from="-1058126291" to="1058126291" fromLane="0" toLane="0"/>

    <connection from="-1058126292" to="-1058126293#0" fromLane="0" toLane="0"/>
    <connection from="-1058126292" to="1058126293#1" fromLane="0" toLane="0"/>
    <connection from="-1058126292" to="1058126292" fromLane="0" toLane="0"/>

    <connection from="-1058126293#0" to="-1058126296#0" fromLane="0" toLane="0"/>
    <connection from="-1058126293#0" to="1058126296#1" fromLane="0" toLane="0"/>
    <connection from="-1058126293#0" to="1058126293#0" fromLane="0" toLane="0"/>

    <connection from="-1058126293#1" to="1058126292" fromLane="0" toLane="0"/>
    <connection from="-1058126293#1" to="-1058126293#0" fromLane="0" toLane="0"/>

    <connection from="-1058126294" to="-1058126295" fromLane="0" toLane="0"/>
    <connection from="-1058126294" to="-1058126296#1" fromLane="0" toLane="0"/>
    <connection from="-1058126294" to="1058126294" fromLane="0" toLane="0"/>

    <connection from="-1058126295" to="31022821#1" fromLane="0" toLane="0"/>
    <connection from="-1058126295" to="1058126295" fromLane="0" toLane="0"/>

    <connection from="-1058126296#0" to="61421363#0" fromLane="0" toLane="0"/>
    <connection from="-1058126296#0" to="61421361#0" fromLane="0" toLane="0"/>
    <connection from="-1058126296#0" to="1091646312#0" fromLane="0" toLane="0"/>
    <connection from="-1058126296#0" to="1058126296#0" fromLane="0" toLane="0"/>

    <connection from="-1058126296#1" to="1058126293#0" fromLane="0" toLane="0"/>
    <connection from="-1058126296#1" to="-1058126296#0" fromLane="0" toLane="0"/>
    <connection from="-1058126296#1" to="1058126296#1" fromLane="0" toLane="0"/>

    <connection from="-1058126311" to="210556105#6" fromLane="0" toLane="0"/>
    <connection from="-1058126311" to="-210556105#5" fromLane="0" toLane="0"/>
    <connection from="-1058126311" to="1058126311" fromLane="0" toLane="0"/>

    <connection from="-1065150467" to="1065150468" fromLane="0" toLane="0"/>
    <connection from="-1065150467" to="1065150467" fromLane="0" toLane="0"/>

    <connection from="-1065150469" to="1165637397" fromLane="0" toLane="0"/>
    <connection from="-1065150469" to="-1065150467" fromLane="0" toLane="0"/>
    <connection from="-1065150469" to="1065150469" fromLane="0" toLane="0"/>

    <connection from="-1065545021" to="754955934#1" fromLane="0" toLane="0"/>
    <connection from="-1065545021" to="-754955934#0" fromLane="0" toLane="0"/>
    <connection from="-1065545021" to="1065545021" fromLane="0" toLane="0"/>

    <connection from="-1091646313#0" to="203407861" fromLane="0" toLane="0"/>
    <connection from="-1091646313#0" to="-40459858#3" fromLane="0" toLane="0"/>
    <connection from="-1091646313#0" to="-380872123#1" fromLane="0" toLane="0"/>
    <connection from="-1091646313#0" to="1091646313#0" fromLane="0" toLane="0"/>

    <connection from="-1091646313#1" to="-1091646313#0" fromLane="0" toLane="0"/>
    <connection from="-1091646313#1" to="-204262605" fromLane="0" toLane="0"/>
    <connection from="-1091646313#1" to="1091646313#1" fromLane="0" toLane="0"/>

    <connection from="-1091646313#2" to="-1091646313#1" fromLane="0" toLane="0"/>
    <connection from="-1091646313#2" to="321117193#0" fromLane="0" toLane="0"/>
    <connection from="-1091646313#2" to="1091646313#2" fromLane="0" toLane="0"/>

    <connection from="-1091758627" to="-421101758#1" fromLane="0" toLane="0"/>
    <connection from="-1091758627" to="-952405655" fromLane="0" toLane="0"/>
    <connection from="-1091758627" to="1091758627" fromLane="0" toLane="0"/>

    <connection from="-1091758628" to="159718836" fromLane="0" toLane="0"/>
    <connection from="-1091758628" to="-39223013#1" fromLane="0" toLane="0"/>
    <connection from="-1091758628" to="39223013#2" fromLane="0" toLane="0"/>

    <connection from="-1097490742" to="1097490742" fromLane="0" toLane="0"/>

    <connection from="-1097491347" to="-1097491348#0" fromLane="0" toLane="0"/>
    <connection from="-1097491347" to="1097491348#1" fromLane="0" toLane="0"/>
    <connection from="-1097491347" to="1097491347" fromLane="0" toLane="0"/>

    <connection from="-1097491348#0" to="39222070#3" fromLane="0" toLane="0"/>
    <connection from="-1097491348#0" to="-39222070#2" fromLane="0" toLane="0"/>
    <connection from="-1097491348#0" to="1097491348#0" fromLane="0" toLane="0"/>

    <connection from="-1097491348#1" to="1097491347" fromLane="0" toLane="0"/>
    <connection from="-1097491348#1" to="-1097491348#0" fromLane="0" toLane="0"/>
    <connection from="-1097491348#1" to="1097491348#1" fromLane="0" toLane="0"/>

    <connection from="-1097491349" to="-39222696#2" fromLane="0" toLane="0"/>
    <connection from="-1097491349" to="39222696#3" fromLane="0" toLane="0"/>
    <connection from="-1097491349" to="1097491349" fromLane="0" toLane="0"/>

    <connection from="-1097491351" to="-1097491352#0" fromLane="0" toLane="0"/>
    <connection from="-1097491351" to="1097491352#1" fromLane="0" toLane="0"/>
    <connection from="-1097491351" to="1097491351" fromLane="0" toLane="0"/>

    <connection from="-1097491352#0" to="-1097491353#0" fromLane="0" toLane="0"/>
    <connection from="-1097491352#0" to="1097491353#1" fromLane="0" toLane="0"/>
    <connection from="-1097491352#0" to="1097491352#0" fromLane="0" toLane="0"/>

    <connection from="-1097491352#1" to="1097491351" fromLane="0" toLane="0"/>
    <connection from="-1097491352#1" to="-1097491352#0" fromLane="0" toLane="0"/>
    <connection from="-1097491352#1" to="1097491352#1" fromLane="0" toLane="0"/>

    <connection from="-1097491353#0" to="39222696#8" fromLane="0" toLane="0"/>
    <connection from="-1097491353#0" to="-39222696#7" fromLane="0" toLane="0"/>
    <connection from="-1097491353#0" to="1097491353#0" fromLane="0" toLane="0"/>

    <connection from="-1097491353#1" to="1097491352#0" fromLane="0" toLane="0"/>
    <connection from="-1097491353#1" to="-1097491353#0" fromLane="0" toLane="0"/>
    <connection from="-1097491353#1" to="1097491353#1" fromLane="0" toLane="0"/>

    <connection from="-1110081042" to="1110081042" fromLane="0" toLane="0"/>

    <connection from="-1110081045" to="202973957" fromLane="0" toLane="0"/>

    <connection from="-1110081046" to="-202973960" fromLane="0" toLane="0"/>
    <connection from="-1110081046" to="-202973959#2" fromLane="0" toLane="0"/>
    <connection from="-1110081046" to="1110081046" fromLane="0" toLane="0"/>

    <connection from="-1110081047" to="1110081048#1" fromLane="0" toLane="0"/>
    <connection from="-1110081047" to="1110081047" fromLane="0" toLane="0"/>

    <connection from="-1110081049" to="1110081049" fromLane="0" toLane="0"/>

    <connection from="-1110090550#0" to="1110090550#0" fromLane="0" toLane="0"/>

    <connection from="-1110090550#1" to="-1110090550#0" fromLane="0" toLane="0"/>
    <connection from="-1110090550#1" to="1110090550#1" fromLane="0" toLane="0"/>

    <connection from="-1110090555#0" to="1110090555#0" fromLane="0" toLane="0"/>

    <connection from="-1110090555#1" to="-1110090555#0" fromLane="0" toLane="0"/>
    <connection from="-1110090555#1" to="1110090555#1" fromLane="0" toLane="0"/>

    <connection from="-1110090558" to="1078172292#0" fromLane="0" toLane="0"/>
    <connection from="-1110090558" to="251410675" fromLane="0" toLane="0"/>
    <connection from="-1110090558" to="1110090558" fromLane="0" toLane="0"/>

    <connection from="-1110090560" to="-457848004#1" fromLane="0" toLane="0"/>
    <connection from="-1110090560" to="457848004#2" fromLane="0" toLane="0"/>
    <connection from="-1110090560" to="1110090560" fromLane="0" toLane="0"/>

    <connection from="-1110090561" to="1110090561" fromLane="0" toLane="0"/>

    <connection from="-1110096042" to="1110096042" fromLane="0" toLane="0"/>

    <connection from="-1110194343" to="1110194342#1" fromLane="0" toLane="0"/>
    <connection from="-1110194343" to="1110194343" fromLane="0" toLane="0"/>

    <connection from="-1110194345#0" to="-203097757#2" fromLane="0" toLane="0"/>
    <connection from="-1110194345#0" to="-49263280#1" fromLane="0" toLane="0"/>
    <connection from="-1110194345#0" to="1110194345#0" fromLane="0" toLane="0"/>

    <connection from="-1110194345#1" to="-1110194345#0" fromLane="0" toLane="0"/>

    <connection from="-1110302769" to="1110302769" fromLane="0" toLane="0"/>

    <connection from="-1110310744" to="1110310744" fromLane="0" toLane="0"/>

    <connection from="-1110326360" to="1110326359#6" fromLane="0" toLane="0"/>
    <connection from="-1110326360" to="1110326360" fromLane="0" toLane="0"/>

    <connection from="-1110326361" to="1110326359#4" fromLane="0" toLane="0"/>
    <connection from="-1110326361" to="1110326361" fromLane="0" toLane="0"/>

    <connection from="-1110326362" to="1110326359#3" fromLane="0" toLane="0"/>
    <connection from="-1110326362" to="1110326362" fromLane="0" toLane="0"/>

    <connection from="-1110326363" to="1110326359#2" fromLane="0" toLane="0"/>
    <connection from="-1110326363" to="1110326363" fromLane="0" toLane="0"/>

    <connection from="-1110326364" to="1110326359#1" fromLane="0" toLane="0"/>
    <connection from="-1110326364" to="1110326364" fromLane="0" toLane="0"/>

    <connection from="-1110326366" to="1110326359#5" fromLane="0" toLane="0"/>
    <connection from="-1110326366" to="1110326366" fromLane="0" toLane="0"/>

    <connection from="-1110326369#0" to="1110326368#2" fromLane="0" toLane="0"/>
    <connection from="-1110326369#0" to="1110326369#0" fromLane="0" toLane="0"/>

    <connection from="-1110326369#1" to="-1110326370" fromLane="0" toLane="0"/>
    <connection from="-1110326369#1" to="-1110326369#0" fromLane="0" toLane="0"/>
    <connection from="-1110326369#1" to="1110326369#1" fromLane="0" toLane="0"/>

    <connection from="-1110326369#2" to="-1110326371" fromLane="0" toLane="0"/>
    <connection from="-1110326369#2" to="-1110326369#1" fromLane="0" toLane="0"/>
    <connection from="-1110326369#2" to="1110326369#2" fromLane="0" toLane="0"/>

    <connection from="-1110326370" to="1110326368#3" fromLane="0" toLane="0"/>
    <connection from="-1110326370" to="1110326370" fromLane="0" toLane="0"/>

    <connection from="-1110326371" to="1110326368#4" fromLane="0" toLane="0"/>
    <connection from="-1110326371" to="1110326371" fromLane="0" toLane="0"/>

    <connection from="-1110326375#0" to="-435633547#1" fromLane="0" toLane="0"/>
    <connection from="-1110326375#0" to="435633547#2" fromLane="0" toLane="0"/>
    <connection from="-1110326375#0" to="1110326375#0" fromLane="0" toLane="0"/>

    <connection from="-1110326375#1" to="698920673#9" fromLane="0" toLane="0"/>
    <connection from="-1110326375#1" to="-1110326375#0" fromLane="0" toLane="0"/>
    <connection from="-1110326375#1" to="-698920673#8" fromLane="0" toLane="0"/>
    <connection from="-1110326375#1" to="1110326375#1" fromLane="0" toLane="0"/>

    <connection from="-1110326378#0" to="1110326378#0" fromLane="0" toLane="0"/>

    <connection from="-1110326378#1" to="-1110326378#0" fromLane="0" toLane="0"/>
    <connection from="-1110326378#1" to="1110326381#0" fromLane="0" toLane="0"/>
    <connection from="-1110326378#1" to="1110326378#1" fromLane="0" toLane="0"/>

    <connection from="-1110326380#0" to="1110326379" fromLane="0" toLane="0"/>
    <connection from="-1110326380#0" to="-1110326378#1" fromLane="0" toLane="0"/>
    <connection from="-1110326380#0" to="-1110326381#1" fromLane="0" toLane="0"/>
    <connection from="-1110326380#0" to="1110326380#0" fromLane="0" toLane="0"/>

    <connection from="-1110326380#1" to="-1110326380#0" fromLane="0" toLane="0"/>
    <connection from="-1110326380#1" to="1110326380#1" fromLane="0" toLane="0"/>

    <connection from="-1110326380#2" to="1156898319#3" fromLane="0" toLane="0"/>
    <connection from="-1110326380#2" to="-1110326380#1" fromLane="0" toLane="0"/>
    <connection from="-1110326380#2" to="-1156898319#2" fromLane="0" toLane="0"/>
    <connection from="-1110326380#2" to="1110326380#2" fromLane="0" toLane="0"/>

    <connection from="-1110326381#0" to="1110326378#1" fromLane="0" toLane="0"/>
    <connection from="-1110326381#0" to="-1110326378#0" fromLane="0" toLane="0"/>
    <connection from="-1110326381#0" to="1110326381#0" fromLane="0" toLane="0"/>

    <connection from="-1110326381#1" to="-1110326381#0" fromLane="0" toLane="0"/>
    <connection from="-1110326381#1" to="1110326382" fromLane="0" toLane="0"/>
    <connection from="-1110326381#1" to="1110326381#1" fromLane="0" toLane="0"/>

    <connection from="-1110636291#0" to="435633536#4" fromLane="0" toLane="0" visibility="9.00"/>

    <connection from="-1110636292#0" to="698920673#4" fromLane="0" toLane="0"/>
    <connection from="-1110636292#0" to="-1110636291#0" fromLane="0" toLane="0"/>
    <connection from="-1110636292#0" to="-698920673#3" fromLane="0" toLane="0"/>
    <connection from="-1110636292#0" to="1110636291#1" fromLane="0" toLane="0"/>

    <connection from="-1110636292#1" to="1138875255" fromLane="0" toLane="0"/>
    <connection from="-1110636292#1" to="-1110636292#0" fromLane="0" toLane="0"/>
    <connection from="-1110636292#1" to="1110636292#1" fromLane="0" toLane="0"/>

    <connection from="-1110636297" to="1110636298#0" fromLane="0" toLane="0"/>
    <connection from="-1110636297" to="1110636297" fromLane="0" toLane="0"/>

    <connection from="-1110636300#0" to="435633535#2" fromLane="0" toLane="0" visibility="9.00"/>

    <connection from="-1110636300#1" to="698920673#3" fromLane="0" toLane="0"/>
    <connection from="-1110636300#1" to="-1110636300#0" fromLane="0" toLane="0"/>
    <connection from="-1110636300#1" to="-698920673#2" fromLane="0" toLane="0"/>
    <connection from="-1110636300#1" to="1110636300#1" fromLane="0" toLane="0"/>

    <connection from="-1110636301#0" to="-1110636301#1" fromLane="0" toLane="0"/>
    <connection from="-1110636301#0" to="-1110636300#1" fromLane="0" toLane="0"/>
    <connection from="-1110636301#0" to="1110636301#0" fromLane="0" toLane="0"/>

    <connection from="-1110636301#1" to="-1110636301#0" fromLane="0" toLane="0"/>

    <connection from="-1113718009#0" to="-203097759" fromLane="0" toLane="0"/>
    <connection from="-1113718009#0" to="-1055899855#1" fromLane="0" toLane="0"/>
    <connection from="-1113718009#0" to="1113718009#0" fromLane="0" toLane="0"/>

    <connection from="-1113718009#1" to="-1113718009#0" fromLane="0" toLane="0"/>

    <connection from="-1113718009#2" to="-1113718009#1" fromLane="0" toLane="0"/>

    <connection from="-1113718010#1" to="-1113718009#2" fromLane="0" toLane="0"/>

    <connection from="-1125819115" to="-204919443" fromLane="0" toLane="0"/>
    <connection from="-1125819115" to="-204919446" fromLane="0" toLane="0"/>