<?xml version="1.0" encoding="UTF-8"?>

<!-- generated on 2025-04-04 16:24:00 by Eclipse SUMO netconvert Version 1.19.0
<configuration xmlns:xsi="http://www.w3.org/2001/XMLSchema-instance" xsi:noNamespaceSchemaLocation="http://sumo.dlr.de/xsd/netconvertConfiguration.xsd">

    <input>
        <sumo-net-file value="othis/othis.net.xml"/>
    </input>

    <output>
        <plain-output-prefix value="othis/othis"/>
    </output>

    <processing>
        <geometry.min-radius.fix.railways value="false"/>
        <geometry.max-grade.fix value="false"/>
        <offset.disable-normalization value="true"/>
        <lefthand value="0"/>
    </processing>

    <tls_building>
        <tls.ignore-internal-junction-jam value="1"/>
    </tls_building>

    <junctions>
        <no-turnarounds value="true"/>
        <junctions.corner-detail value="5"/>
        <junctions.limit-turn-speed value="5.50"/>
        <rectangular-lane-cut value="0"/>
    </junctions>

    <pedestrian>
        <walkingareas value="0"/>
    </pedestrian>

</configuration>
-->

<edges version="1.16" xmlns:xsi="http://www.w3.org/2001/XMLSchema-instance" xsi:noNamespaceSchemaLocation="http://sumo.dlr.de/xsd/edges_file.xsd">
    <location netOffset="-471696.78,-5427018.17" convBoundary="0.00,0.00,10418.91,12212.76" origBoundary="2.612499,48.995593,2.754968,49.105663" projParameter="+proj=utm +zone=31 +ellps=WGS84 +datum=WGS84 +units=m +no_defs"/>

    <edge id="-1016094929#0" from="11407821363" to="343724040" priority="12" type="highway.primary" numLanes="2" speed="13.89" shape="1691.71,4182.93 1658.52,4170.46 1640.81,4163.66 1612.57,4152.84" disallow="tram rail_urban rail rail_electric rail_fast ship">
        <param key="ref" value="D 401"/>
    </edge>
    <edge id="-1016153889#0" from="cluster_11134591746_469871632_766862644" to="9372710923" priority="12" type="highway.primary" numLanes="2" speed="8.33" shape="3813.63,5656.56 3807.36,5652.26 3803.97,5649.93 3774.89,5629.94 3739.82,5605.84" disallow="tram rail_urban rail rail_electric rail_fast ship">
        <param key="ref" value="D 401"/>
    </edge>
    <edge id="-1016153889#2" from="6645938101" to="cluster_11134591746_469871632_766862644" priority="12" type="highway.primary" numLanes="2" speed="8.33" shape="3902.61,5717.27 3885.07,5705.75 3824.81,5664.25" disallow="tram rail_urban rail rail_electric rail_fast ship">
        <param key="ref" value="D 401"/>
    </edge>
    <edge id="-1016153889#3" from="344928500" to="6645938101" priority="12" type="highway.primary" numLanes="2" speed="8.33" disallow="tram rail_urban rail rail_electric rail_fast ship">
        <param key="ref" value="D 401"/>
    </edge>
    <edge id="-1016153890#0" from="2173997174" to="7710580929" priority="12" type="highway.primary" numLanes="2" speed="19.44" disallow="tram rail_urban rail rail_electric rail_fast ship">
        <param key="ref" value="D 401"/>
    </edge>
    <edge id="-1016153890#1" from="9372710923" to="2173997174" priority="12" type="highway.primary" numLanes="2" speed="19.44" disallow="tram rail_urban rail rail_electric rail_fast ship">
        <param key="ref" value="D 401"/>
    </edge>
    <edge id="-1017640508" from="9386450400" to="344936898" priority="3" type="highway.residential" numLanes="1" speed="13.89" shape="2833.10,9816.54 2890.31,9822.14 2893.37,9826.90 2884.92,9893.20" disallow="tram rail_urban rail rail_electric rail_fast ship"/>
    <edge id="-1017647030" from="9386381864" to="9386381865" priority="1" type="highway.service" numLanes="1" speed="5.56" allow="pedestrian delivery bicycle"/>
    <edge id="-1021761468" from="9711769302" to="9423688724" priority="1" type="highway.service" numLanes="1" speed="5.56" shape="4844.15,8988.24 4850.43,8960.27 4881.35,8958.57" allow="pedestrian delivery bicycle"/>
    <edge id="-1021761470" from="8815138218" to="cluster_4207001346_9423688751" priority="1" type="highway.track" numLanes="1" speed="5.56" shape="4619.05,9914.75 4624.53,9912.39 4626.96,9908.57 4619.59,9880.28 4665.98,9850.59 4650.36,9793.83 4598.81,9763.38" allow="pedestrian motorcycle moped bicycle"/>
    <edge id="-1055008608" from="6412128098" to="9694502646" priority="3" type="highway.residential" numLanes="1" speed="13.89" disallow="tram rail_urban rail rail_electric rail_fast ship"/>
    <edge id="-1055008610" from="6412128095" to="6412128103" priority="3" type="highway.residential" numLanes="1" speed="13.89" disallow="tram rail_urban rail rail_electric rail_fast ship"/>
    <edge id="-1055008611" from="6412128096" to="cluster_1610861222_6412128092" priority="3" type="highway.residential" numLanes="1" speed="13.89" shape="5558.79,7531.74 5555.48,7533.87 5527.94,7551.59 5523.90,7554.35" disallow="tram rail_urban rail rail_electric rail_fast ship"/>
    <edge id="-1055018450" from="1610861171" to="1610861163" priority="3" type="highway.residential" numLanes="1" speed="13.89" shape="5343.71,7245.25 5346.45,7243.68 5349.89,7241.66 5392.29,7217.22 5406.78,7208.94" disallow="tram rail_urban rail rail_electric rail_fast ship"/>
    <edge id="-1055024544" from="842231400" to="842231397" priority="3" type="highway.residential" numLanes="1" speed="13.89" shape="5335.01,6440.10 5334.77,6436.26 5334.18,6432.52 5333.00,6426.48" disallow="tram rail_urban rail rail_electric rail_fast ship"/>
    <edge id="-1055024545" from="842231396" to="cluster_265482792_9694602394" priority="3" type="highway.residential" numLanes="1" speed="13.89" shape="5287.31,6415.34 5286.18,6441.34 5285.91,6447.33" disallow="tram rail_urban rail rail_electric rail_fast ship"/>
    <edge id="-1055029206" from="2105139733" to="2105139717" priority="3" type="highway.residential" numLanes="1" speed="13.89" shape="6270.45,4446.97 6267.38,4427.99 6267.21,4423.01 6267.79,4418.39 6272.23,4398.57 6274.80,4394.47" disallow="tram rail_urban rail rail_electric rail_fast ship"/>
    <edge id="-1055276702" from="9696731670" to="9696731671" priority="3" type="highway.residential" numLanes="1" speed="13.89" shape="4654.72,7491.06 4651.66,7495.80 4650.89,7512.91" disallow="tram rail_urban rail rail_electric rail_fast ship"/>
    <edge id="-1055276704" from="9696731684" to="9696731681" priority="1" type="highway.service" numLanes="1" speed="5.56" shape="4503.68,7624.19 4501.76,7626.28 4500.98,7633.09 4492.15,7652.25" allow="pedestrian delivery bicycle"/>
    <edge id="-1055302166" from="9696980436" to="3278248467" priority="1" type="highway.service" numLanes="1" speed="5.56" allow="pedestrian delivery bicycle"/>
    <edge id="-1055305117" from="4596897331" to="9697005156" priority="3" type="highway.residential" numLanes="1" speed="13.89" disallow="tram rail_urban rail rail_electric rail_fast ship"/>
    <edge id="-1055390310" from="cluster_4596897315_4596897329_7063139217_7148531413_#2more" to="9697677989" priority="1" type="highway.service" numLanes="1" speed="5.56" shape="4632.72,7258.60 4631.99,7286.76" allow="pedestrian delivery bicycle"/>
    <edge id="-1055447164" from="9698144478" to="9698144476" priority="1" type="highway.service" numLanes="1" speed="5.56" shape="6127.12,7214.31 6125.00,7222.17 6100.86,7243.45" allow="pedestrian delivery bicycle"/>
    <edge id="-1055605346" from="3278509702" to="9699782125" priority="3" type="highway.residential" numLanes="1" speed="13.89" disallow="tram rail_urban rail rail_electric rail_fast ship"/>
    <edge id="-1055605347" from="9699782136" to="9699782134" priority="3" type="highway.residential" numLanes="1" speed="13.89" shape="6255.97,4859.11 6248.72,4859.83 6182.26,4838.41" disallow="tram rail_urban rail rail_electric rail_fast ship"/>
    <edge id="-1055605348" from="9699782140" to="9699782134" priority="1" type="highway.service" numLanes="1" speed="5.56" shape="6165.77,4839.89 6168.39,4837.35 6178.01,4841.35 6182.26,4838.41" allow="pedestrian delivery bicycle"/>
    <edge id="-1055634862" from="9700013394" to="9700013392" priority="1" type="highway.service" numLanes="1" speed="5.56" shape="6201.83,4339.07 6176.41,4374.54 6174.43,4378.82" allow="pedestrian delivery bicycle"/>
    <edge id="-1055634863" from="9700013397" to="9700013395" priority="1" type="highway.service" numLanes="1" speed="5.56" shape="6177.16,4329.89 6159.05,4363.69 6151.63,4366.91" allow="pedestrian delivery bicycle"/>
    <edge id="-1055637608" from="9700019669" to="9700019668" priority="1" type="highway.service" numLanes="1" speed="5.56" shape="6201.16,4449.57 6195.76,4448.02 6165.01,4448.16" allow="pedestrian delivery bicycle"/>
    <edge id="-1055639060" from="9700071028" to="9700071027" priority="1" type="highway.service" numLanes="1" speed="5.56" shape="6182.87,4510.82 6177.75,4509.96 6160.37,4509.06" allow="pedestrian delivery bicycle"/>
    <edge id="-1055639061" from="9700071037" to="9700071035" priority="1" type="highway.service" numLanes="1" speed="5.56" shape="6172.77,4541.72 6167.92,4540.07 6121.93,4537.44" allow="pedestrian delivery bicycle"/>
    <edge id="-1055639062" from="9700071045" to="9700071040" priority="1" type="highway.service" numLanes="1" speed="5.56" shape="6121.09,4562.95 6125.63,4567.80 6137.11,4570.84 6143.07,4578.79 6153.14,4581.94 6156.91,4583.31" allow="pedestrian delivery bicycle"/>
    <edge id="-1055718444" from="2129513141" to="9700639249" priority="3" type="highway.residential" numLanes="1" speed="13.89" disallow="tram rail_urban rail rail_electric rail_fast ship"/>
    <edge id="-1055718445" from="9700639254" to="9700639250" priority="1" type="highway.service" numLanes="1" speed="5.56" shape="6067.62,5102.61 6058.50,5115.91 6053.90,5121.32 6017.62,5141.00 6015.85,5148.30" allow="pedestrian delivery bicycle"/>
    <edge id="-1055718446" from="9700639264" to="9700639262" priority="1" type="highway.service" numLanes="1" speed="5.56" shape="5969.18,5104.93 5965.14,5109.55 5966.87,5147.79" allow="pedestrian delivery bicycle"/>
    <edge id="-1055861501" from="cluster_2012031487_9701977605" to="9701977604" priority="1" type="highway.service" numLanes="1" speed="5.56" shape="6443.08,4880.44 6382.76,4846.22" allow="pedestrian delivery bicycle"/>
    <edge id="-1055861502" from="9701977612" to="cluster_3278509707_9701977611" priority="1" type="highway.service" numLanes="1" speed="5.56" shape="6375.10,4881.41 6434.83,4913.28" allow="pedestrian delivery bicycle"/>
    <edge id="-1055863590" from="9701986948" to="9701986946" priority="1" type="highway.service" numLanes="1" speed="5.56" shape="6430.29,4810.58 6431.30,4817.74 6461.36,4830.73" allow="pedestrian delivery bicycle"/>
    <edge id="-1055864960" from="9701991475" to="9701991474" priority="1" type="highway.service" numLanes="1" speed="5.56" allow="pedestrian delivery bicycle"/>
    <edge id="-1055865511" from="9702010607" to="9702010605" priority="1" type="highway.service" numLanes="1" speed="5.56" shape="6042.90,4541.89 6032.92,4554.13 6019.96,4604.73" allow="pedestrian delivery bicycle"/>
    <edge id="-1055866207" from="9702000961" to="9702000960" priority="1" type="highway.service" numLanes="1" speed="5.56" allow="pedestrian delivery bicycle"/>
    <edge id="-1055866326#0" from="9702010616" to="9702010613" priority="1" type="highway.service" numLanes="1" speed="5.56" shape="5820.04,4574.81 5819.34,4587.56 5818.22,4613.35 5814.44,4652.83" allow="pedestrian delivery bicycle"/>
    <edge id="-1055866326#1" from="9702022018" to="9702010616" priority="1" type="highway.service" numLanes="1" speed="5.56" shape="5825.96,4546.16 5821.29,4559.05 5820.04,4574.81" allow="pedestrian delivery bicycle"/>
    <edge id="-1055866327" from="9702010616" to="9702022019" priority="1" type="highway.service" numLanes="1" speed="5.56" allow="pedestrian delivery bicycle"/>
    <edge id="-1055899353" from="9702235984" to="9702235979" priority="1" type="highway.service" numLanes="1" speed="5.56" shape="6121.36,4420.44 6116.08,4423.38 6110.71,4432.28 6046.47,4446.12 5984.68,4452.99 5978.50,4451.56" allow="pedestrian delivery bicycle"/>
    <edge id="-1055899354" from="9702389548" to="2130649828" priority="1" type="highway.service" numLanes="1" speed="5.56" shape="6138.83,4030.34 6143.34,4019.47 6191.87,4038.04" allow="pedestrian delivery bicycle"/>
    <edge id="-1055899855#0" from="2139432756" to="288859741" priority="10" type="highway.tertiary" numLanes="1" speed="22.22" shape="6296.71,3818.56 6303.02,3798.56 6340.40,3680.09" disallow="tram rail_urban rail rail_electric rail_fast ship">
        <param key="ref" value="D 404"/>
    </edge>
    <edge id="-1055899855#1" from="2130649822" to="2139432756" priority="10" type="highway.tertiary" numLanes="1" speed="22.22" disallow="tram rail_urban rail rail_electric rail_fast ship">
        <param key="ref" value="D 404"/>
    </edge>
    <edge id="-1055904932" from="9702420965" to="9702420963" priority="3" type="highway.residential" numLanes="1" speed="13.89" shape="6219.48,3835.75 6230.27,3842.71 6254.73,3867.20" disallow="tram rail_urban rail rail_electric rail_fast ship"/>
    <edge id="-1056010874" from="cluster_2012031483_2130640572_288859748" to="9703260020" priority="1" type="highway.service" numLanes="1" speed="5.56" shape="5684.05,4540.93 5670.73,4536.54 5519.38,4508.61 5515.46,4507.87" allow="pedestrian delivery bicycle"/>
    <edge id="-1056141981" from="cluster_2012031429_9704496853" to="9704496850" priority="1" type="highway.service" numLanes="1" speed="5.56" shape="6170.99,5225.08 6181.14,5226.21 6198.80,5220.12 6226.82,5229.12" allow="pedestrian delivery bicycle"/>
    <edge id="-1056142767" from="9704508049" to="9704508047" priority="1" type="highway.service" numLanes="1" speed="5.56" shape="6069.97,5067.87 6057.66,5083.27 6054.50,5086.08" allow="pedestrian delivery bicycle"/>
    <edge id="-1056142768" from="9704508052" to="cluster_2129513153_9704508050" priority="1" type="highway.service" numLanes="1" speed="5.56" shape="6056.89,5057.54 6044.00,5062.95 6039.88,5064.78" allow="pedestrian delivery bicycle"/>
    <edge id="-1056142769" from="9704508089" to="9704508088" priority="1" type="highway.service" numLanes="1" speed="5.56" allow="pedestrian delivery bicycle"/>
    <edge id="-1056142770" from="9704508104" to="9704508102" priority="1" type="highway.service" numLanes="1" speed="5.56" shape="6065.37,4827.04 6046.33,4822.31 6048.36,4814.20" allow="pedestrian delivery bicycle"/>
    <edge id="-1056143824" from="9704502924" to="288859746" priority="1" type="highway.service" numLanes="1" speed="5.56" allow="pedestrian delivery bicycle"/>
    <edge id="-1056143825" from="9704502954" to="9704502950" priority="1" type="highway.service" numLanes="1" speed="5.56" shape="5808.73,4500.79 5806.86,4512.63 5803.04,4524.57 5801.73,4534.31 5800.96,4540.18" allow="pedestrian delivery bicycle"/>
    <edge id="-1056145421" from="9704543169" to="288859751" priority="1" type="highway.service" numLanes="1" speed="5.56" shape="5483.65,4718.06 5481.29,4711.42 5496.64,4655.25 5491.69,4641.58" allow="pedestrian delivery bicycle"/>
    <edge id="-1056146715" from="9704547346" to="9704547343" priority="1" type="highway.service" numLanes="1" speed="5.56" shape="5715.49,4520.44 5700.76,4518.13 5697.17,4513.45 5684.97,4514.39" allow="pedestrian delivery bicycle"/>
    <edge id="-1056146716" from="9704547355" to="2012031465" priority="1" type="highway.service" numLanes="1" speed="5.56" allow="pedestrian delivery bicycle"/>
    <edge id="-1056404288" from="1806438341" to="1806438365" priority="3" type="highway.residential" numLanes="1" speed="13.89" disallow="tram rail_urban rail rail_electric rail_fast ship"/>
    <edge id="-1056564905" from="9708581695" to="1806438332" priority="3" type="highway.residential" numLanes="1" speed="13.89" disallow="tram rail_urban rail rail_electric rail_fast ship"/>
    <edge id="-1056564906" from="9708581697" to="9708581696" priority="3" type="highway.residential" numLanes="1" speed="13.89" disallow="tram rail_urban rail rail_electric rail_fast ship"/>
    <edge id="-1056830958" from="4207009601" to="1813422826" priority="3" type="highway.residential" numLanes="1" speed="13.89" disallow="tram rail_urban rail rail_electric rail_fast ship"/>
    <edge id="-1056841439" from="1808529793" to="9711030130" priority="3" type="highway.residential" numLanes="1" speed="13.89" disallow="tram rail_urban rail rail_electric rail_fast ship"/>
    <edge id="-1058126282" from="9722721064" to="9722721065" priority="1" type="highway.service" numLanes="1" speed="5.56" allow="pedestrian delivery bicycle"/>
    <edge id="-1058126283" from="9722721066" to="1610969529" priority="1" type="highway.service" numLanes="1" speed="5.56" shape="5400.45,6276.06 5393.07,6245.59 5392.59,6233.19" allow="pedestrian delivery bicycle"/>
    <edge id="-1058126290" from="9722721094" to="842231537" priority="1" type="highway.service" numLanes="1" speed="5.56" shape="4311.65,6587.75 4316.96,6592.81 4317.95,6596.03 4317.97,6599.26 4316.13,6604.04 4316.64,6607.47 4319.09,6609.80 4364.99,6631.78" allow="pedestrian delivery bicycle"/>
    <edge id="-1058126291" from="9722721102" to="1352124364" priority="1" type="highway.service" numLanes="1" speed="5.56" shape="4014.75,6900.90 4024.12,6892.93 4039.55,6879.79 4044.71,6872.05 4087.17,6835.51 4090.98,6824.62" allow="pedestrian delivery bicycle"/>
    <edge id="-1058126292" from="9722721106" to="9722721107" priority="1" type="highway.service" numLanes="1" speed="5.56" allow="pedestrian delivery bicycle"/>
    <edge id="-1058126293#0" from="9722721107" to="9722721115" priority="3" type="highway.residential" numLanes="1" speed="13.89" shape="4039.66,5946.66 4037.60,5943.87 4006.21,5913.52 3996.09,5905.65 3981.16,5899.07 3971.44,5894.33 3953.08,5877.64" disallow="tram rail_urban rail rail_electric rail_fast ship"/>
    <edge id="-1058126293#1" from="9722721108" to="9722721107" priority="3" type="highway.residential" numLanes="1" speed="13.89" shape="4084.07,5991.55 4063.42,5976.49 4039.66,5946.66" disallow="tram rail_urban rail rail_electric rail_fast ship"/>
    <edge id="-1058126296#0" from="9722721115" to="766862750" priority="3" type="highway.residential" numLanes="1" speed="13.89" shape="3953.08,5877.64 3907.30,5923.19 3904.56,5930.86" disallow="tram rail_urban rail rail_electric rail_fast ship"/>
    <edge id="-1058126296#1" from="cluster_344936336_344936357_6306080296_9722721118_#1more" to="9722721115" priority="3" type="highway.residential" numLanes="1" speed="13.89" shape="3981.82,5849.72 3959.26,5871.63 3953.08,5877.64" disallow="tram rail_urban rail rail_electric rail_fast ship"/>
    <edge id="-1058126311" from="9722721203" to="9722721204" priority="1" type="highway.service" numLanes="1" speed="5.56" allow="pedestrian delivery bicycle"/>
    <edge id="-1065150467" from="9781988066" to="9781988070" priority="1" type="highway.service" numLanes="1" speed="5.56" shape="5091.74,5051.33 5093.96,5056.33 5099.98,5064.40 5101.90,5065.30" allow="pedestrian delivery bicycle"/>
    <edge id="-1065150469" from="9781988077" to="9781988066" priority="1" type="highway.service" numLanes="1" speed="5.56" shape="5076.13,5082.34 5069.77,5067.65 5068.70,5064.87 5068.62,5063.66 5069.06,5061.70 5069.74,5060.12 5072.30,5058.68 5091.74,5051.33" allow="pedestrian delivery bicycle"/>
    <edge id="-1065545021" from="9785651051" to="9785651052" priority="1" type="highway.service" numLanes="1" speed="5.56" allow="pedestrian delivery bicycle"/>
    <edge id="-1091646313#0" from="2142737578" to="2134188553" priority="4" type="highway.unclassified" numLanes="1" speed="13.89" disallow="tram rail_urban rail rail_electric rail_fast ship"/>
    <edge id="-1091646313#1" from="490074314" to="2142737578" priority="4" type="highway.unclassified" numLanes="1" speed="13.89" disallow="tram rail_urban rail rail_electric rail_fast ship"/>
    <edge id="-1091646313#2" from="1352124325" to="490074314" priority="4" type="highway.unclassified" numLanes="1" speed="13.89" shape="4231.61,6892.35 4197.04,6920.78 4122.72,6989.96 4092.35,7010.84 4051.96,7032.38 4025.68,7042.62" disallow="tram rail_urban rail rail_electric rail_fast ship"/>
    <edge id="-1091758627" from="469870268" to="4209248521" priority="10" type="highway.tertiary" numLanes="1" speed="8.33" shape="3020.84,9916.25 3106.11,9875.64 3182.48,9840.43 3196.63,9833.14 3197.81,9832.53" disallow="tram rail_urban rail rail_electric rail_fast ship">
        <param key="ref" value="D 26E"/>
    </edge>
    <edge id="-1091758628" from="469870266" to="469870256" priority="1" type="highway.track" numLanes="1" speed="5.56" shape="3124.65,10031.09 3159.40,10062.99 3200.37,10085.43 3266.21,10113.47 3278.90,10116.97 3347.19,10135.81 3376.41,10145.43 3510.90,10175.65 3590.96,10206.87 3719.67,10271.84 3843.20,10314.52" allow="pedestrian motorcycle moped bicycle"/>
    <edge id="-1097490742" from="10049104792" to="10049104808" priority="1" type="highway.path" numLanes="1" speed="5.56" shape="4768.69,7829.99 4760.35,7817.23 4755.23,7809.92 4755.19,7799.68 4758.21,7772.50 4758.43,7757.26 4764.08,7725.10 4762.99,7699.32 4760.70,7691.42 4747.68,7670.37 4737.50,7650.78 4729.73,7641.82 4721.96,7632.57 4710.73,7618.36 4700.79,7610.01 4697.15,7606.60 4696.81,7602.16" width="2.00" allow="pedestrian bicycle"/>
    <edge id="-1097491347" from="10049107126" to="10049107128" priority="1" type="highway.service" numLanes="1" speed="5.56" allow="pedestrian delivery bicycle"/>
    <edge id="-1097491348#0" from="10049107128" to="3278258353" priority="1" type="highway.service" numLanes="1" speed="5.56" allow="pedestrian delivery bicycle"/>
    <edge id="-1097491348#1" from="10049107127" to="10049107128" priority="1" type="highway.service" numLanes="1" speed="5.56" allow="pedestrian delivery bicycle"/>
    <edge id="-1097491349" from="10049107129" to="10049107130" priority="1" type="highway.service" numLanes="1" speed="5.56" allow="pedestrian delivery bicycle"/>
    <edge id="-1097491351" from="10049107136" to="10049107138" priority="1" type="highway.service" numLanes="1" speed="5.56" allow="pedestrian delivery bicycle"/>
    <edge id="-1097491352#0" from="10049107138" to="10049107139" priority="1" type="highway.service" numLanes="1" speed="5.56" allow="pedestrian delivery bicycle"/>
    <edge id="-1097491352#1" from="10049107137" to="10049107138" priority="1" type="highway.service" numLanes="1" speed="5.56" allow="pedestrian delivery bicycle"/>
    <edge id="-1097491353#0" from="10049107139" to="10049107141" priority="1" type="highway.service" numLanes="1" speed="5.56" allow="pedestrian delivery bicycle"/>
    <edge id="-1097491353#1" from="10049107131" to="10049107139" priority="1" type="highway.service" numLanes="1" speed="5.56" shape="6601.14,7453.36 6585.36,7451.96 6553.46,7415.20" allow="pedestrian delivery bicycle"/>
    <edge id="-1110081042" from="10155271084" to="10155271091" priority="1" type="highway.service" numLanes="1" speed="5.56" shape="6126.71,4177.14 6154.63,4189.27 6156.85,4191.21 6158.33,4194.24 6158.92,4196.20 6159.38,4199.91 6161.30,4202.92 6163.71,4205.02 6172.79,4208.55" allow="pedestrian delivery bicycle"/>
    <edge id="-1110081045" from="2012031443" to="7707210000" priority="3" type="highway.residential" numLanes="1" speed="13.89" disallow="tram rail_urban rail rail_electric rail_fast ship"/>
    <edge id="-1110081046" from="10155295623" to="2129354764" priority="3" type="highway.residential" numLanes="1" speed="13.89" disallow="tram rail_urban rail rail_electric rail_fast ship"/>
    <edge id="-1110081047" from="10155295668" to="10155295669" priority="1" type="highway.service" numLanes="1" speed="5.56" allow="pedestrian delivery bicycle"/>
    <edge id="-1110081049" from="10155295673" to="10155295684" priority="1" type="highway.service" numLanes="1" speed="5.56" shape="6084.73,3878.80 6079.90,3874.63 6076.32,3788.52" allow="pedestrian delivery bicycle"/>
    <edge id="-1110090550#0" from="cluster_10155310264_2576351926" to="10155310265" priority="1" type="highway.service" numLanes="1" speed="5.56" shape="6332.35,4202.27 6327.47,4192.84" allow="pedestrian delivery bicycle"/>
    <edge id="-1110090555#0" from="cluster_10155310280_9884852281" to="10155310281" priority="1" type="highway.service" numLanes="1" speed="5.56" shape="6359.68,4188.17 6322.70,4115.15" allow="pedestrian delivery bicycle"/>
    <edge id="-1110090558" from="2576351933" to="2576351934" priority="1" type="highway.service" numLanes="1" speed="5.56" allow="pedestrian delivery bicycle"/>
    <edge id="-1110090560" from="10155310301" to="10155310314" priority="1" type="highway.track" numLanes="1" speed="5.56" shape="6490.08,4425.80 6479.82,4410.10 6470.66,4398.36 6467.70,4393.28 6462.24,4388.37 6457.08,4386.49 6452.27,4383.63 6448.09,4380.76 6444.26,4378.77 6441.66,4377.56 6439.16,4376.83 6437.15,4376.55 6435.39,4376.85 6430.77,4379.76" allow="pedestrian motorcycle moped bicycle"/>
    <edge id="-1110090561" from="10155310315" to="10155310316" priority="3" type="highway.residential" numLanes="1" speed="13.89" disallow="tram rail_urban rail rail_electric rail_fast ship"/>
    <edge id="-1110096042" from="10155404072" to="10155404077" priority="1" type="highway.track" numLanes="1" speed="5.56" shape="6245.93,3891.36 6241.91,3890.16 6238.38,3888.37 6234.88,3885.15 6213.07,3848.48 6152.16,3730.15" allow="pedestrian motorcycle moped bicycle"/>
    <edge id="-1110194343" from="10156211312" to="10156211304" priority="1" type="highway.service" numLanes="1" speed="5.56" allow="pedestrian delivery bicycle"/>
    <edge id="-1110194345#0" from="10156211311" to="2130649823" priority="10" type="highway.tertiary" numLanes="1" speed="22.22" disallow="tram rail_urban rail rail_electric rail_fast ship">
        <param key="ref" value="D 404"/>
    </edge>
    <edge id="-1110194345#1" from="cluster_10156211305_2126023505" to="10156211311" priority="10" type="highway.tertiary" numLanes="1" speed="22.22" shape="6159.03,4116.69 6170.53,4094.87" disallow="tram rail_urban rail rail_electric rail_fast ship">
        <param key="ref" value="D 404"/>
    </edge>
    <edge id="-1110302769" from="cluster_10157206601_2576351911_2576351914_2576351919_#2more" to="10157206602" priority="1" type="highway.service" numLanes="1" speed="5.56" shape="6247.87,4090.64 6228.06,4103.40" allow="pedestrian delivery bicycle"/>
    <edge id="-1110310744" from="10157292891" to="10157292893" priority="1" type="highway.track" numLanes="1" speed="5.56" shape="6601.90,4525.72 6603.71,4507.31 6567.11,4421.83" allow="pedestrian motorcycle moped bicycle"/>
    <edge id="-1110326360" from="10157462245" to="10157462243" priority="1" type="highway.service" numLanes="1" speed="5.56" allow="pedestrian delivery bicycle"/>
    <edge id="-1110326361" from="10157462246" to="10157462241" priority="1" type="highway.service" numLanes="1" speed="5.56" allow="pedestrian delivery bicycle"/>
    <edge id="-1110326362" from="10157462247" to="10157462240" priority="1" type="highway.service" numLanes="1" speed="5.56" allow="pedestrian delivery bicycle"/>
    <edge id="-1110326363" from="10157462248" to="10157462239" priority="1" type="highway.service" numLanes="1" speed="5.56" allow="pedestrian delivery bicycle"/>
    <edge id="-1110326364" from="10157462249" to="10157462238" priority="1" type="highway.service" numLanes="1" speed="5.56" allow="pedestrian delivery bicycle"/>
    <edge id="-1110326366" from="10157462250" to="10157462242" priority="1" type="highway.service" numLanes="1" speed="5.56" allow="pedestrian delivery bicycle"/>
    <edge id="-1110326369#0" from="10157462274" to="10157462256" priority="1" type="highway.service" numLanes="1" speed="5.56" shape="5153.98,4691.06 5156.17,4706.46 5177.64,4705.28" allow="pedestrian delivery bicycle"/>
    <edge id="-1110326369#1" from="10157462275" to="10157462274" priority="1" type="highway.service" numLanes="1" speed="5.56" allow="pedestrian delivery bicycle"/>
    <edge id="-1110326369#2" from="10157462253" to="10157462275" priority="1" type="highway.service" numLanes="1" speed="5.56" shape="5184.98,4655.29 5149.83,4657.47 5151.94,4673.46" allow="pedestrian delivery bicycle"/>
    <edge id="-1110326370" from="10157462274" to="10157462255" priority="1" type="highway.service" numLanes="1" speed="5.56" allow="pedestrian delivery bicycle"/>
    <edge id="-1110326371" from="10157462275" to="10157462254" priority="1" type="highway.service" numLanes="1" speed="5.56" allow="pedestrian delivery bicycle"/>
    <edge id="-1110326378#0" from="10157462317" to="10157462312" priority="1" type="highway.service" numLanes="1" speed="5.56" allow="pedestrian delivery bicycle"/>
    <edge id="-1110326378#1" from="10157462318" to="10157462317" priority="1" type="highway.service" numLanes="1" speed="5.56" allow="pedestrian delivery bicycle"/>
    <edge id="-1110326380#0" from="10157462320" to="10157462318" priority="1" type="highway.service" numLanes="1" speed="5.56" allow="pedestrian delivery bicycle"/>
    <edge id="-1110326380#1" from="cluster_10157462237_10157462323_10615387419_10615387420_#2more" to="10157462320" priority="1" type="highway.service" numLanes="1" speed="5.56" shape="5139.55,4516.21 5140.70,4516.19 5148.00,4515.39 5156.10,4514.80 5163.54,4518.64 5172.98,4522.01 5183.27,4524.18" allow="pedestrian delivery bicycle"/>
    <edge id="-1110326381#0" from="10157462329" to="10157462317" priority="1" type="highway.service" numLanes="1" speed="5.56" shape="5225.10,4525.59 5238.44,4498.22 5243.85,4487.12 5208.32,4473.77 5202.46,4471.57 5193.74,4495.03" allow="pedestrian delivery bicycle"/>
    <edge id="-1110326381#1" from="10157462318" to="10157462329" priority="1" type="highway.service" numLanes="1" speed="5.56" allow="pedestrian delivery bicycle"/>
    <edge id="-1110636291#0" from="cluster_10160416818_7313095242" to="8566694719" priority="1" type="highway.service" numLanes="1" speed="5.56" shape="5417.68,5010.31 5421.11,5004.60" allow="pedestrian delivery bicycle"/>