<edges xmlns:xsi="http://www.w3.org/2001/XMLSchema-instance" version="1.16" xsi:noNamespaceSchemaLocation="http://sumo.dlr.de/xsd/edges_file.xsd">
    <location netOffset="-471696.78,-5427018.17" convBoundary="0.00,0.00,10418.91,12212.76" origBoundary="2.612499,48.995593,2.754968,49.105663" projParameter="+proj=utm +zone=31 +ellps=WGS84 +datum=WGS84 +units=m +no_defs" />

    <edge id="-1016094929#0" from="11407821363" to="343724040" priority="12" type="highway.primary" numLanes="2" speed="13.89" shape="1691.71,4182.93 1658.52,4170.46 1640.81,4163.66 1612.57,4152.84" disallow="tram rail_urban rail rail_electric rail_fast ship">
        <param key="ref" value="D 401" />
    </edge>
    <edge id="-1016153889#0" from="766862644" to="9372710923" priority="12" type="highway.primary" numLanes="2" speed="8.33" shape="3813.63,5656.56 3807.36,5652.26 3803.97,5649.93 3774.89,5629.94 3739.82,5605.84" disallow="tram rail_urban rail rail_electric rail_fast ship">
        <param key="ref" value="D 401" />
    </edge>
    <edge id="-1016153889#1" from="469871632" to="766862644" priority="12" type="highway.primary" numLanes="2" speed="8.33" disallow="tram rail_urban rail rail_electric rail_fast ship">
        <param key="ref" value="D 401" />
    </edge>
    <edge id="-1016153889#2" from="6645938101" to="469871632" priority="12" type="highway.primary" numLanes="2" speed="8.33" shape="3902.61,5717.27 3885.07,5705.75 3824.81,5664.25" disallow="tram rail_urban rail rail_electric rail_fast ship">
        <param key="ref" value="D 401" />
    </edge>
    <edge id="-1016153889#3" from="344928500" to="6645938101" priority="12" type="highway.primary" numLanes="2" speed="8.33" disallow="tram rail_urban rail rail_electric rail_fast ship">
        <param key="ref" value="D 401" />
    </edge>
    <edge id="-1016153890#0" from="2173997174" to="7710580929" priority="12" type="highway.primary" numLanes="2" speed="19.44" disallow="tram rail_urban rail rail_electric rail_fast ship">
        <param key="ref" value="D 401" />
    </edge>
    <edge id="-1016153890#1" from="9372710923" to="2173997174" priority="12" type="highway.primary" numLanes="2" speed="19.44" disallow="tram rail_urban rail rail_electric rail_fast ship">
        <param key="ref" value="D 401" />
    </edge>
    <edge id="-1016165357#0" from="2132459386" to="9372810311" priority="12" type="highway.primary" numLanes="2" speed="13.89" shape="7572.52,6579.73 7605.30,6568.37 7609.08,6567.06 7612.81,6565.76 7616.73,6564.40 7620.41,6563.13 7644.02,6554.94 7648.82,6553.28 7653.48,6551.66 7667.69,6546.74 7672.34,6545.13 7676.03,6543.85 7681.89,6541.82 7718.25,6529.29" disallow="tram rail_urban rail rail_electric rail_fast ship">
        <param key="ref" value="D 401" />
    </edge>
    <edge id="-1016165357#1" from="30883584" to="2132459386" priority="12" type="highway.primary" numLanes="2" speed="13.89" disallow="tram rail_urban rail rail_electric rail_fast ship">
        <param key="ref" value="D 401" />
    </edge>
    <edge id="-1016165357#2" from="4053333994" to="30883584" priority="12" type="highway.primary" numLanes="2" speed="13.89" disallow="tram rail_urban rail rail_electric rail_fast ship" distance="-37087.00">
        <param key="ref" value="D 401" />
    </edge>
    <edge id="-1016165357#3" from="9423688650" to="4053333994" priority="12" type="highway.primary" numLanes="2" speed="13.89" disallow="tram rail_urban rail rail_electric rail_fast ship">
        <param key="ref" value="D 401" />
    </edge>
    <edge id="-1016165357#4" from="7631634544" to="9423688650" priority="12" type="highway.primary" numLanes="2" speed="13.89" disallow="tram rail_urban rail rail_electric rail_fast ship">
        <param key="ref" value="D 401" />
    </edge>
    <edge id="-1017640508" from="9386450400" to="344936898" priority="3" type="highway.residential" numLanes="1" speed="13.89" shape="2833.10,9816.54 2890.31,9822.14 2893.37,9826.90 2884.92,9893.20" disallow="tram rail_urban rail rail_electric rail_fast ship" />
    <edge id="-1055008608" from="6412128098" to="9694502646" priority="3" type="highway.residential" numLanes="1" speed="13.89" disallow="tram rail_urban rail rail_electric rail_fast ship" />
    <edge id="-1055008610" from="6412128095" to="6412128103" priority="3" type="highway.residential" numLanes="1" speed="13.89" disallow="tram rail_urban rail rail_electric rail_fast ship" />
    <edge id="-1055008611" from="6412128096" to="6412128092" priority="3" type="highway.residential" numLanes="1" speed="13.89" shape="5558.79,7531.74 5555.48,7533.87 5527.94,7551.59 5523.90,7554.35" disallow="tram rail_urban rail rail_electric rail_fast ship" />
    <edge id="-1055018450" from="1610861171" to="1610861163" priority="3" type="highway.residential" numLanes="1" speed="13.89" shape="5343.71,7245.25 5346.45,7243.68 5349.89,7241.66 5392.29,7217.22 5406.78,7208.94" disallow="tram rail_urban rail rail_electric rail_fast ship" />
    <edge id="-1055024544" from="842231400" to="842231397" priority="3" type="highway.residential" numLanes="1" speed="13.89" shape="5335.01,6440.10 5334.77,6436.26 5334.18,6432.52 5333.00,6426.48" disallow="tram rail_urban rail rail_electric rail_fast ship" />
    <edge id="-1055024545" from="842231396" to="9694602394" priority="3" type="highway.residential" numLanes="1" speed="13.89" shape="5287.31,6415.34 5286.18,6441.34 5285.91,6447.33" disallow="tram rail_urban rail rail_electric rail_fast ship" />
    <edge id="-1055029206" from="2105139733" to="2105139717" priority="3" type="highway.residential" numLanes="1" speed="13.89" shape="6270.45,4446.97 6267.38,4427.99 6267.21,4423.01 6267.79,4418.39 6272.23,4398.57 6274.80,4394.47" disallow="tram rail_urban rail rail_electric rail_fast ship" />
    <edge id="-1055276702" from="9696731670" to="9696731671" priority="3" type="highway.residential" numLanes="1" speed="13.89" shape="4654.72,7491.06 4651.66,7495.80 4650.89,7512.91" disallow="tram rail_urban rail rail_electric rail_fast ship" />
    <edge id="-1055305117" from="4596897331" to="9697005156" priority="3" type="highway.residential" numLanes="1" speed="13.89" disallow="tram rail_urban rail rail_electric rail_fast ship" />
    <edge id="-1055605346" from="3278509702" to="9699782125" priority="3" type="highway.residential" numLanes="1" speed="13.89" disallow="tram rail_urban rail rail_electric rail_fast ship" />
    <edge id="-1055605347" from="9699782136" to="9699782134" priority="3" type="highway.residential" numLanes="1" speed="13.89" shape="6255.97,4859.11 6248.72,4859.83 6182.26,4838.41" disallow="tram rail_urban rail rail_electric rail_fast ship" />
    <edge id="-1055718444" from="2129513141" to="9700639249" priority="3" type="highway.residential" numLanes="1" speed="13.89" disallow="tram rail_urban rail rail_electric rail_fast ship" />
    <edge id="-1055899855#0" from="2139432756" to="2130662211" priority="10" type="highway.tertiary" numLanes="1" speed="22.22" shape="6296.71,3818.56 6303.02,3798.56 6340.40,3680.09 6361.11,3615.54 6369.04,3589.70 6380.15,3544.89 6391.18,3499.81 6394.53,3488.81 6400.06,3473.84 6408.99,3451.42 6426.96,3407.75 6438.22,3380.33 6448.03,3356.14 6462.76,3315.78" disallow="tram rail_urban rail rail_electric rail_fast ship">
        <param key="ref" value="D 404" />
    </edge>
    <edge id="-1055899855#1" from="2130649822" to="2139432756" priority="10" type="highway.tertiary" numLanes="1" speed="22.22" disallow="tram rail_urban rail rail_electric rail_fast ship">
        <param key="ref" value="D 404" />
    </edge>
    <edge id="-1055904932" from="9702420965" to="9702420963" priority="3" type="highway.residential" numLanes="1" speed="13.89" shape="6219.48,3835.75 6230.27,3842.71 6254.73,3867.20" disallow="tram rail_urban rail rail_electric rail_fast ship" />
    <edge id="-1056404288" from="1806438341" to="1806438365" priority="3" type="highway.residential" numLanes="1" speed="13.89" disallow="tram rail_urban rail rail_electric rail_fast ship" />
    <edge id="-1056564905" from="9708581695" to="1806438332" priority="3" type="highway.residential" numLanes="1" speed="13.89" disallow="tram rail_urban rail rail_electric rail_fast ship" />
    <edge id="-1056564906" from="9708581697" to="9708581696" priority="3" type="highway.residential" numLanes="1" speed="13.89" disallow="tram rail_urban rail rail_electric rail_fast ship" />
    <edge id="-1056830958" from="4207009601" to="1813422826" priority="3" type="highway.residential" numLanes="1" speed="13.89" disallow="tram rail_urban rail rail_electric rail_fast ship" />
    <edge id="-1056841439" from="1808529793" to="9711030130" priority="3" type="highway.residential" numLanes="1" speed="13.89" disallow="tram rail_urban rail rail_electric rail_fast ship" />
    <edge id="-1058126293#0" from="9722721107" to="9722721115" priority="3" type="highway.residential" numLanes="1" speed="13.89" shape="4039.66,5946.66 4037.60,5943.87 4006.21,5913.52 3996.09,5905.65 3981.16,5899.07 3971.44,5894.33 3953.08,5877.64" disallow="tram rail_urban rail rail_electric rail_fast ship" />
    <edge id="-1058126293#1" from="9722721108" to="9722721107" priority="3" type="highway.residential" numLanes="1" speed="13.89" shape="4084.07,5991.55 4063.42,5976.49 4039.66,5946.66" disallow="tram rail_urban rail rail_electric rail_fast ship" />
    <edge id="-1058126294" from="6306080296" to="9722721119" priority="3" type="highway.residential" numLanes="1" speed="13.89" shape="4000.43,5823.80 3995.47,5831.20 3981.82,5849.72" disallow="tram rail_urban rail rail_electric rail_fast ship" />
    <edge id="-1058126295" from="9722721119" to="9722721118" priority="3" type="highway.residential" numLanes="1" speed="13.89" shape="3981.82,5849.72 3988.47,5846.17 3998.17,5843.49 4003.99,5842.49 4015.80,5843.16" disallow="tram rail_urban rail rail_electric rail_fast ship" />
    <edge id="-1058126296#0" from="9722721115" to="766862750" priority="3" type="highway.residential" numLanes="1" speed="13.89" shape="3953.08,5877.64 3907.30,5923.19 3904.56,5930.86" disallow="tram rail_urban rail rail_electric rail_fast ship" />
    <edge id="-1058126296#1" from="9722721119" to="9722721115" priority="3" type="highway.residential" numLanes="1" speed="13.89" shape="3981.82,5849.72 3959.26,5871.63 3953.08,5877.64" disallow="tram rail_urban rail rail_electric rail_fast ship" />
    <edge id="-1091646313#0" from="2142737578" to="2134188553" priority="4" type="highway.unclassified" numLanes="1" speed="13.89" disallow="tram rail_urban rail rail_electric rail_fast ship" />
    <edge id="-1091646313#1" from="490074314" to="2142737578" priority="4" type="highway.unclassified" numLanes="1" speed="13.89" disallow="tram rail_urban rail rail_electric rail_fast ship" />
    <edge id="-1091646313#2" from="1352124325" to="490074314" priority="4" type="highway.unclassified" numLanes="1" speed="13.89" shape="4231.61,6892.35 4197.04,6920.78 4122.72,6989.96 4092.35,7010.84 4051.96,7032.38 4025.68,7042.62" disallow="tram rail_urban rail rail_electric rail_fast ship" />
    <edge id="-1091758627" from="469870268" to="4209248521" priority="10" type="highway.tertiary" numLanes="1" speed="8.33" shape="3020.84,9916.25 3106.11,9875.64 3182.48,9840.43 3196.63,9833.14 3197.81,9832.53" disallow="tram rail_urban rail rail_electric rail_fast ship">
        <param key="ref" value="D 26E" />
    </edge>
    <edge id="-1110081045" from="2012031443" to="7707210000" priority="3" type="highway.residential" numLanes="1" speed="13.89" disallow="tram rail_urban rail rail_electric rail_fast ship" />
    <edge id="-1110081046" from="10155295623" to="2129354764" priority="3" type="highway.residential" numLanes="1" speed="13.89" disallow="tram rail_urban rail rail_electric rail_fast ship" />
    <edge id="-1110090561" from="10155310315" to="10155310316" priority="3" type="highway.residential" numLanes="1" speed="13.89" disallow="tram rail_urban rail rail_electric rail_fast ship" />
    <edge id="-1110194345#0" from="10156211311" to="2130649823" priority="10" type="highway.tertiary" numLanes="1" speed="22.22" disallow="tram rail_urban rail rail_electric rail_fast ship">
        <param key="ref" value="D 404" />
    </edge>
    <edge id="-1110194345#1" from="2126023505" to="10156211311" priority="10" type="highway.tertiary" numLanes="1" speed="22.22" disallow="tram rail_urban rail rail_electric rail_fast ship">
        <param key="ref" value="D 404" />
    </edge>
    <edge id="-1113718009#0" from="2139432764" to="2130649822" priority="10" type="highway.tertiary" numLanes="1" speed="22.22" disallow="tram rail_urban rail rail_electric rail_fast ship">
        <param key="ref" value="D 404" />
    </edge>
    <edge id="-1113718009#1" from="9884866326" to="2139432764" priority="10" type="highway.tertiary" numLanes="1" speed="22.22" disallow="tram rail_urban rail rail_electric rail_fast ship">
        <param key="ref" value="D 404" />
    </edge>
    <edge id="-1113718009#2" from="288859742" to="9884866326" priority="10" type="highway.tertiary" numLanes="1" speed="22.22" disallow="tram rail_urban rail rail_electric rail_fast ship">
        <param key="ref" value="D 404" />
    </edge>
    <edge id="-1113718010#1" from="554999246" to="288859742" priority="10" type="highway.tertiary" numLanes="1" speed="22.22" shape="6208.52,4020.60 6215.24,4007.00 6231.13,3972.24 6260.70,3911.45 6270.53,3890.19 6285.46,3850.32" disallow="tram rail_urban rail rail_electric rail_fast ship">
        <param key="ref" value="D 404" />
    </edge>
    <edge id="-1165637398" from="345565216" to="4596897174" priority="12" type="highway.primary" numLanes="2" speed="27.78" disallow="tram rail_urban rail rail_electric rail_fast ship">
        <param key="ref" value="D 404" />
    </edge>
    <edge id="-1165637399" from="4596897174" to="2158099295" priority="12" type="highway.primary" numLanes="2" speed="27.78" disallow="tram rail_urban rail rail_electric rail_fast ship">
        <param key="ref" value="D 404" />
    </edge>
    <edge id="-1174883875#0" from="12673181423" to="1808529555" priority="3" type="highway.residential" numLanes="1" speed="13.89" disallow="tram rail_urban rail rail_electric rail_fast ship" />
    <edge id="-1174883875#1" from="10916941450" to="12673181423" priority="3" type="highway.residential" numLanes="1" speed="13.89" shape="4306.12,8161.83 4286.84,8186.93 4310.76,8439.40 4304.89,8478.79" disallow="tram rail_urban rail rail_electric rail_fast ship" />
    <edge id="-1181073575#0" from="2576351914" to="5714611213" priority="10" type="highway.tertiary" numLanes="1" speed="22.22" disallow="tram rail_urban rail rail_electric rail_fast ship">
        <param key="ref" value="D 41E" />
    </edge>
    <edge id="-1181073575#1" from="5714611222" to="2576351914" priority="10" type="highway.tertiary" numLanes="1" speed="22.22" disallow="tram rail_urban rail rail_electric rail_fast ship">
        <param key="ref" value="D 41E" />
    </edge>
    <edge id="-120625184" from="1352125814" to="1352124833" priority="3" type="highway.residential" numLanes="1" speed="13.89" disallow="tram rail_urban rail rail_electric rail_fast ship" />
    <edge id="-120625187#0" from="766862524" to="1352125584" priority="3" type="highway.residential" numLanes="1" speed="13.89" disallow="tram rail_urban rail rail_electric rail_fast ship" />
    <edge id="-120625187#1" from="766862568" to="766862524" priority="3" type="highway.residential" numLanes="1" speed="13.89" shape="3697.64,6532.78 3603.92,6523.46 3589.42,6520.71" disallow="tram rail_urban rail rail_electric rail_fast ship" />
    <edge id="-120625188#0" from="11657420644" to="564912130" priority="4" type="highway.unclassified" numLanes="1" speed="13.89" shape="5644.47,7734.64 5642.46,7732.11 5630.27,7717.25 5621.19,7701.88" disallow="tram rail_urban rail rail_electric rail_fast ship">
        <param key="ref" value="VC" />
    </edge>
    <edge id="-120625188#1" from="1352125131" to="11657420644" priority="4" type="highway.unclassified" numLanes="1" speed="13.89" disallow="tram rail_urban rail rail_electric rail_fast ship">
        <param key="ref" value="VC" />
    </edge>
    <edge id="-120625188#2" from="469866082" to="1352125131" priority="4" type="highway.unclassified" numLanes="1" speed="13.89" disallow="tram rail_urban rail rail_electric rail_fast ship">
        <param key="ref" value="VC" />
    </edge>
    <edge id="-120625193" from="842231582" to="1352124344" priority="3" type="highway.residential" numLanes="1" speed="13.89" shape="4212.80,6467.80 4199.74,6442.63 4195.25,6430.37 4193.39,6417.41 4194.18,6409.59 4196.61,6400.92" disallow="tram rail_urban rail rail_electric rail_fast ship" />
    <edge id="-120625195" from="1352125824" to="1352125230" priority="3" type="highway.residential" numLanes="1" speed="13.89" disallow="tram rail_urban rail rail_electric rail_fast ship" />
    <edge id="-120625196#0" from="7148543583" to="1352124343" priority="4" type="highway.unclassified" numLanes="1" speed="13.89" shape="5768.00,7754.33 5800.12,7737.27 5808.24,7730.33 5812.15,7723.41 5814.52,7715.41" disallow="tram rail_urban rail rail_electric rail_fast ship" />
    <edge id="-120625196#1" from="1352125898" to="7148543583" priority="4" type="highway.unclassified" numLanes="1" speed="13.89" disallow="tram rail_urban rail rail_electric rail_fast ship" />
    <edge id="-120625197#0" from="1352124514" to="1352124530" priority="2" type="highway.living_street" numLanes="1" speed="2.78" disallow="tram rail_urban rail rail_electric rail_fast ship" />
    <edge id="-120625197#1" from="1352124534" to="1352124514" priority="2" type="highway.living_street" numLanes="1" speed="2.78" disallow="tram rail_urban rail rail_electric rail_fast ship" />
    <edge id="-120625198#0" from="1352124364" to="1352124325" priority="3" type="highway.residential" numLanes="1" speed="13.89" shape="4090.98,6824.62 4104.54,6831.31 4163.62,6853.89 4197.52,6870.56 4224.80,6886.57 4231.61,6892.35" disallow="tram rail_urban rail rail_electric rail_fast ship" />
    <edge id="-120625198#1" from="1352124551" to="1352124364" priority="3" type="highway.residential" numLanes="1" speed="13.89" shape="4030.13,6772.91 4068.28,6808.78 4090.98,6824.62" disallow="tram rail_urban rail rail_electric rail_fast ship" />
    <edge id="-120625198#2" from="1352125329" to="1352124551" priority="3" type="highway.residential" numLanes="1" speed="13.89" shape="3984.31,6701.86 4014.31,6754.95 4030.13,6772.91" disallow="tram rail_urban rail rail_electric rail_fast ship" />
    <edge id="-120625204" from="288859776" to="288859775" priority="10" type="highway.tertiary" numLanes="1" speed="22.22" shape="5062.61,6630.54 5051.96,6621.05 5018.18,6600.05 5012.05,6596.61" disallow="tram rail_urban rail rail_electric rail_fast ship" />
    <edge id="-120625219#0" from="1352125096" to="1352124561" priority="3" type="highway.residential" numLanes="1" speed="13.89" disallow="tram rail_urban rail rail_electric rail_fast ship" />
    <edge id="-120625219#1" from="344928855" to="1352125096" priority="3" type="highway.residential" numLanes="1" speed="13.89" disallow="tram rail_urban rail rail_electric rail_fast ship" />
    <edge id="-120625228" from="1352125383" to="1352125449" priority="3" type="highway.residential" numLanes="1" speed="13.89" disallow="tram rail_urban rail rail_electric rail_fast ship" />
    <edge id="-120625232" from="2263527178" to="469866089" priority="12" type="highway.primary" numLanes="1" speed="27.78" shape="5060.79,8025.69 5094.63,8002.34 5551.50,7690.02" disallow="tram rail_urban rail rail_electric rail_fast ship">
        <param key="ref" value="D 13" />
    </edge>
    <edge id="-120625239" from="1352125009" to="1352124265" priority="3" type="highway.residential" numLanes="1" speed="13.89" shape="3126.28,6372.55 3111.85,6368.41 3084.86,6359.14" disallow="tram rail_urban rail rail_electric rail_fast ship" />
    <edge id="-120625254#0" from="7148543588" to="469866082" priority="4" type="highway.unclassified" numLanes="1" speed="13.89" disallow="tram rail_urban rail rail_electric rail_fast ship">
        <param key="ref" value="VC" />
    </edge>
    <edge id="-120625254#1" from="469866085" to="7148543588" priority="4" type="highway.unclassified" numLanes="1" speed="13.89" shape="5732.46,7886.97 5735.82,7872.57 5735.27,7855.74 5728.31,7839.18 5715.14,7822.77" disallow="tram rail_urban rail rail_electric rail_fast ship">
        <param key="ref" value="VC" />
    </edge>
    <edge id="-120625263#0" from="1352124241" to="1352125942" priority="3" type="highway.residential" numLanes="1" speed="13.89" disallow="tram rail_urban rail rail_electric rail_fast ship" />
    <edge id="-120625263#1" from="12384916733" to="1352124241" priority="3" type="highway.residential" numLanes="1" speed="13.89" disallow="tram rail_urban rail rail_electric rail_fast ship" />
    <edge id="-120625263#2" from="1352125472" to="12384916733" priority="3" type="highway.residential" numLanes="1" speed="13.89" shape="3490.60,6325.78 3491.04,6320.08 3493.94,6285.29 3497.16,6273.65" disallow="tram rail_urban rail rail_electric rail_fast ship" />
    <edge id="-120625268#0" from="1352125942" to="1352126098" priority="3" type="highway.residential" numLanes="1" speed="13.89" shape="3533.29,6167.05 3570.31,6170.53 3572.79,6170.76" disallow="tram rail_urban rail rail_electric rail_fast ship" />
    <edge id="-120625268#1" from="4596895762" to="1352125942" priority="3" type="highway.residential" numLanes="1" speed="13.89" disallow="tram rail_urban rail rail_electric rail_fast ship" />
    <edge id="-120625268#2" from="4596895764" to="4596895762" priority="3" type="highway.residential" numLanes="1" speed="13.89" shape="3453.12,6149.30 3471.17,6158.41 3484.61,6160.29" disallow="tram rail_urban rail rail_electric rail_fast ship" />
    <edge id="-120625268#3" from="1352124234" to="4596895764" priority="3" type="highway.residential" numLanes="1" speed="13.89" shape="3401.39,6128.40 3424.52,6134.85 3453.12,6149.30" disallow="tram rail_urban rail rail_electric rail_fast ship" />
    <edge id="-120625271#0" from="1352124396" to="258908938" priority="12" type="highway.primary" numLanes="1" speed="25.00" disallow="tram rail_urban rail rail_electric rail_fast ship">
        <param key="ref" value="D 401" />
    </edge>
    <edge id="-120625271#1" from="8422979329" to="1352124396" priority="12" type="highway.primary" numLanes="1" speed="25.00" disallow="tram rail_urban rail rail_electric rail_fast ship">
        <param key="ref" value="D 401" />
    </edge>
    <edge id="-120625271#2" from="258907985" to="8422979329" priority="12" type="highway.primary" numLanes="1" speed="25.00" shape="6688.64,6882.17 6702.47,6878.47 6723.38,6872.90 6750.42,6864.62 6795.50,6849.46 6815.66,6842.45" disallow="tram rail_urban rail rail_electric rail_fast ship">
        <param key="ref" value="D 401" />
    </edge>
    <edge id="-120625275#0" from="469857461" to="469857460" priority="4" type="highway.unclassified" numLanes="1" speed="13.89" disallow="tram rail_urban rail rail_electric rail_fast ship" />
    <edge id="-120625275#1" from="469857462" to="469857461" priority="4" type="highway.unclassified" numLanes="1" speed="13.89" disallow="tram rail_urban rail rail_electric rail_fast ship" />
    <edge id="-120625275#10" from="469857536" to="469857484" priority="4" type="highway.unclassified" numLanes="1" speed="13.89" shape="7637.47,7404.32 7637.63,7393.42 7636.43,7383.87" disallow="tram rail_urban rail rail_electric rail_fast ship" />
    <edge id="-120625275#2" from="469857466" to="469857462" priority="4" type="highway.unclassified" numLanes="1" speed="13.89" shape="7409.79,6984.26 7386.93,6976.38 7369.98,6968.14 7357.67,6959.05 7348.32,6947.26 7319.19,6890.98 7302.14,6859.40" disallow="tram rail_urban rail rail_electric rail_fast ship" />
    <edge id="-120625275#3" from="9423688628" to="469857466" priority="4" type="highway.unclassified" numLanes="1" speed="13.89" disallow="tram rail_urban rail rail_electric rail_fast ship" />
    <edge id="-120625275#4" from="469857472" to="9423688628" priority="4" type="highway.unclassified" numLanes="1" speed="13.89" shape="7493.71,7015.07 7486.18,7003.73 7478.42,6997.69 7469.94,6994.48 7426.62,6988.03 7422.26,6987.06" disallow="tram rail_urban rail rail_electric rail_fast ship" />
    <edge id="-120625275#5" from="9423688637" to="469857472" priority="4" type="highway.unclassified" numLanes="1" speed="13.89" shape="7529.03,7077.88 7519.77,7068.07 7514.50,7059.88 7510.51,7052.96 7495.69,7019.08 7493.71,7015.07" disallow="tram rail_urban rail rail_electric rail_fast ship" />
    <edge id="-120625275#6" from="9423688634" to="9423688637" priority="4" type="highway.unclassified" numLanes="1" speed="13.89" disallow="tram rail_urban rail rail_electric rail_fast ship" />
    <edge id="-120625275#7" from="2132067508" to="9423688634" priority="4" type="highway.unclassified" numLanes="1" speed="13.89" shape="7611.62,7185.93 7603.14,7174.98 7573.63,7136.94" disallow="tram rail_urban rail rail_electric rail_fast ship" />
    <edge id="-120625275#8" from="2132071660" to="2132067508" priority="4" type="highway.unclassified" numLanes="1" speed="13.89" shape="7637.84,7274.97 7641.81,7241.46 7641.48,7231.83 7639.54,7224.27 7634.56,7215.16 7611.62,7185.93" disallow="tram rail_urban rail rail_electric rail_fast ship" />
    <edge id="-120625275#9" from="469857484" to="2132071660" priority="4" type="highway.unclassified" numLanes="1" speed="13.89" shape="7636.43,7383.87 7636.04,7374.09 7635.72,7327.36 7634.82,7311.44 7635.98,7297.01 7637.84,7274.97" disallow="tram rail_urban rail rail_electric rail_fast ship" />
    <edge id="-120625280" from="766862460" to="842231551" priority="4" type="highway.unclassified" numLanes="1" speed="13.89" disallow="tram rail_urban rail rail_electric rail_fast ship" />
    <edge id="-120625287" from="1352124241" to="1352125088" priority="3" type="highway.residential" numLanes="1" speed="13.89" disallow="tram rail_urban rail rail_electric rail_fast ship" />
    <edge id="-120625298#0" from="2612267875" to="1352124313" priority="4" type="highway.unclassified" numLanes="1" speed="13.89" disallow="tram rail_urban rail rail_electric rail_fast ship" />
    <edge id="-120625298#1" from="2612268060" to="2612267875" priority="4" type="highway.unclassified" numLanes="1" speed="13.89" disallow="tram rail_urban rail rail_electric rail_fast ship" />
    <edge id="-120625298#2" from="1352124618" to="2612268060" priority="4" type="highway.unclassified" numLanes="1" speed="13.89" disallow="tram rail_urban rail rail_electric rail_fast ship" />
    <edge id="-120625302" from="766862632" to="766862512" priority="3" type="highway.residential" numLanes="1" speed="13.89" shape="4049.16,6572.48 4043.18,6574.12 3999.50,6568.38" disallow="tram rail_urban rail rail_electric rail_fast ship" />
    <edge id="-120625314" from="766862692" to="766862744" priority="3" type="highway.residential" numLanes="1" speed="13.89" shape="4141.90,6316.90 4148.14,6313.37 4158.95,6303.05 4159.19,6297.34" disallow="tram rail_urban rail rail_electric rail_fast ship" />
    <edge id="-120625315" from="1352125391" to="2131012029" priority="3" type="highway.residential" numLanes="1" speed="13.89" shape="4590.11,6455.46 4592.23,6458.11 4594.34,6460.76 4607.96,6477.89" disallow="tram rail_urban rail rail_electric rail_fast ship" />
    <edge id="-120625319" from="842231582" to="842231452" priority="3" type="highway.residential" numLanes="1" speed="13.89" shape="4212.80,6467.80 4231.93,6465.65 4236.46,6467.24 4322.33,6524.10" disallow="tram rail_urban rail rail_electric rail_fast ship" />
    <edge id="-120625323#1" from="1352125391" to="1352126204" priority="11" type="highway.secondary" numLanes="1" speed="13.89" shape="4590.11,6455.46 4592.69,6440.87 4593.30,6436.85 4594.34,6431.57" disallow="tram rail_urban rail rail_electric rail_fast ship" />
    <edge id="-120625323#2" from="5061162233" to="1352125391" priority="11" type="highway.secondary" numLanes="1" speed="13.89" disallow="tram rail_urban rail rail_electric rail_fast ship" />
    <edge id="-120625323#3" from="842231662" to="5061162233" priority="11" type="highway.secondary" numLanes="1" speed="13.89" shape="4570.25,6548.08 4573.86,6527.73 4587.02,6469.88" disallow="tram rail_urban rail rail_electric rail_fast ship" />
    <edge id="-120625323#4" from="2131369650" to="842231662" priority="11" type="highway.secondary" numLanes="1" speed="13.89" shape="4565.08,6566.01 4567.66,6557.05 4570.25,6548.08" disallow="tram rail_urban rail rail_electric rail_fast ship" />
    <edge id="-120625323#5" from="842231591" to="2131369650" priority="11" type="highway.secondary" numLanes="1" speed="13.89" shape="4537.93,6610.00 4556.97,6579.94 4565.08,6566.01" disallow="tram rail_urban rail rail_electric rail_fast ship" />
    <edge id="-120625323#6" from="288859766" to="842231591" priority="11" type="highway.secondary" numLanes="1" speed="13.89" disallow="tram rail_urban rail rail_electric rail_fast ship" />
    <edge id="-120625324" from="469866078" to="1352124933" priority="4" type="highway.unclassified" numLanes="1" speed="13.89" shape="5810.23,7651.77 5812.31,7645.16 5816.32,7639.50" disallow="tram rail_urban rail rail_electric rail_fast ship" />
    <edge id="-120625326#0" from="842231572" to="1352124501" priority="3" type="highway.residential" numLanes="1" speed="13.89" shape="4181.90,6550.09 4174.17,6559.16 4165.44,6553.18" disallow="tram rail_urban rail rail_electric rail_fast ship" />
    <edge id="-120625326#1" from="842231582" to="842231572" priority="3" type="highway.residential" numLanes="1" speed="13.89" shape="4212.80,6467.80 4215.36,6477.72 4214.59,6482.27 4203.00,6499.85 4181.90,6550.09" disallow="tram rail_urban rail rail_electric rail_fast ship" />
    <edge id="-120625334#0" from="7710553968" to="288859760" priority="3" type="highway.residential" numLanes="1" speed="13.89" disallow="tram rail_urban rail rail_electric rail_fast ship" />