<?xml version="1.0" encoding="UTF-8"?>

<!-- generated on 2025-04-09 03:45:37 by Eclipse SUMO netconvert Version 1.19.0
<configuration xmlns:xsi="http://www.w3.org/2001/XMLSchema-instance" xsi:noNamespaceSchemaLocation="http://sumo.dlr.de/xsd/netconvertConfiguration.xsd">

    <input>
        <sumo-net-file value="othis/othis.net.xml"/>
    </input>

    <output>
        <plain-output-prefix value="othis/othis"/>
    </output>

    <processing>
        <geometry.min-radius.fix.railways value="false"/>
        <geometry.max-grade.fix value="false"/>
        <offset.disable-normalization value="true"/>
        <lefthand value="0"/>
    </processing>

    <tls_building>
        <tls.ignore-internal-junction-jam value="1"/>
    </tls_building>

    <junctions>
        <no-turnarounds value="true"/>
        <junctions.corner-detail value="5"/>
        <junctions.limit-turn-speed value="5.50"/>
        <rectangular-lane-cut value="0"/>
    </junctions>

    <pedestrian>
        <walkingareas value="0"/>
    </pedestrian>

</configuration>
-->

<nodes version="1.16" xmlns:xsi="http://www.w3.org/2001/XMLSchema-instance" xsi:noNamespaceSchemaLocation="http://sumo.dlr.de/xsd/nodes_file.xsd">
    <location netOffset="-471696.78,-5427018.17" convBoundary="0.00,0.00,10418.91,12212.76" origBoundary="2.612499,48.995593,2.754968,49.105663" projParameter="+proj=utm +zone=31 +ellps=WGS84 +datum=WGS84 +units=m +no_defs"/>

    <node id="10049104751" x="4256.32" y="7339.76" type="dead_end"/>
    <node id="10049104753" x="4256.00" y="7387.56" type="priority"/>
    <node id="10049104765" x="4140.69" y="7605.19" type="priority"/>
    <node id="10049104766" x="4142.24" y="7608.06" type="dead_end"/>
    <node id="10049104767" x="4297.22" y="7586.34" type="dead_end"/>
    <node id="10049104789" x="4679.48" y="7587.57" type="dead_end"/>
    <node id="10049104790" x="4679.21" y="7600.65" type="dead_end"/>
    <node id="10049104791" x="4692.57" y="7601.74" type="dead_end"/>
    <node id="10049104792" x="4768.69" y="7829.99" type="priority"/>
    <node id="10049104808" x="4696.81" y="7602.16" type="priority"/>
    <node id="10049104810" x="4861.77" y="7546.05" type="priority"/>
    <node id="10049104811" x="4832.34" y="7543.19" type="priority"/>
    <node id="10049104813" x="4760.91" y="7536.57" type="priority"/>
    <node id="10049104814" x="4695.45" y="7530.49" type="priority"/>
    <node id="10049104815" x="4700.70" y="7531.22" type="dead_end"/>
    <node id="10049107126" x="6631.23" y="7357.32" type="priority"/>
    <node id="10049107127" x="6691.87" y="7432.11" type="priority"/>
    <node id="10049107128" x="6652.10" y="7383.03" type="right_before_left"/>
    <node id="10049107129" x="6583.18" y="7295.96" type="priority"/>
    <node id="10049107130" x="6613.53" y="7270.27" type="priority"/>
    <node id="10049107131" x="6601.14" y="7453.36" type="priority"/>
    <node id="10049107136" x="6534.68" y="7421.00" type="priority"/>
    <node id="10049107137" x="6556.62" y="7447.58" type="priority"/>
    <node id="10049107138" x="6539.43" y="7426.67" type="right_before_left"/>
    <node id="10049107139" x="6553.46" y="7415.20" type="right_before_left"/>
    <node id="10049107141" x="6540.48" y="7400.24" type="priority"/>
    <node id="10049108319" x="4694.03" y="7590.17" type="priority"/>
    <node id="10049108320" x="4686.65" y="7588.20" type="priority"/>
    <node id="10049108321" x="4661.37" y="7585.95" type="priority"/>
    <node id="10049108325" x="4449.67" y="7583.38" type="dead_end"/>
    <node id="10049108326" x="4449.54" y="7571.91" type="dead_end"/>
    <node id="10049108330" x="4392.23" y="7578.58" type="dead_end"/>
    <node id="10049108331" x="4438.90" y="7582.45" type="priority"/>
    <node id="10049108332" x="4410.16" y="7580.37" type="priority"/>
    <node id="10049108335" x="4343.44" y="7564.26" type="priority"/>
    <node id="10049108336" x="4362.44" y="7571.61" type="dead_end"/>
    <node id="10049108341" x="4254.75" y="7361.78" type="priority"/>
    <node id="10049108342" x="4261.11" y="7339.35" type="priority"/>
    <node id="10049108343" x="4270.48" y="7284.89" type="priority"/>
    <node id="10049108344" x="4310.84" y="7350.17" type="priority"/>
    <node id="10049108346" x="4259.29" y="7416.24" type="priority"/>
    <node id="10049108348" x="4294.91" y="7504.34" type="priority"/>
    <node id="10049108351" x="4303.04" y="7585.15" type="priority"/>
    <node id="10049108352" x="4381.16" y="7577.92" type="priority"/>
    <node id="10049108353" x="4511.85" y="7574.09" type="priority"/>
    <node id="10049108356" x="4440.75" y="7568.43" type="priority"/>
    <node id="10049108357" x="4392.69" y="7571.94" type="priority"/>
    <node id="10049108358" x="4449.86" y="7577.09" type="priority"/>
    <node id="10049108360" x="4474.88" y="7585.57" type="dead_end"/>
    <node id="10155271084" x="6126.71" y="4177.14" type="priority"/>
    <node id="10155271091" x="6172.79" y="4208.55" type="priority"/>
    <node id="10155295623" x="5929.56" y="4054.60" type="priority"/>
    <node id="10155295658" x="6259.36" y="4508.03" type="priority"/>
    <node id="10155295668" x="6219.76" y="3963.34" type="priority"/>
    <node id="10155295669" x="6199.23" y="3956.07" type="right_before_left"/>
    <node id="10155295673" x="6084.73" y="3878.80" type="right_before_left"/>
    <node id="10155295676" x="6137.71" y="3940.76" type="right_before_left"/>
    <node id="10155295679" x="6151.17" y="3923.61" type="priority"/>
    <node id="10155295684" x="6076.32" y="3788.52" type="priority"/>
    <node id="10155310264" x="6332.35" y="4202.27" type="priority"/>
    <node id="10155310265" x="6327.47" y="4192.84" type="priority" fringe="inner">
        <param key="buffer_stop" value="true"/>
    </node>
    <node id="10155310268" x="6377.26" y="4279.04" type="dead_end"/>
    <node id="10155310270" x="6342.82" y="4196.73" type="dead_end"/>
    <node id="10155310271" x="6383.09" y="4276.15" type="dead_end"/>
    <node id="10155310274" x="6402.27" y="4266.46" type="dead_end"/>
    <node id="10155310278" x="6340.58" y="4178.18" type="dead_end"/>
    <node id="10155310279" x="6352.11" y="4191.80" type="dead_end"/>
    <node id="10155310280" x="6359.68" y="4188.17" type="priority"/>
    <node id="10155310281" x="6322.70" y="4115.15" type="priority"/>
    <node id="10155310283" x="6353.68" y="4194.97" type="priority"/>
    <node id="10155310284" x="6392.56" y="4271.29" type="dead_end"/>
    <node id="10155310285" x="6416.14" y="4317.64" type="priority"/>
    <node id="10155310289" x="6395.87" y="4300.48" type="priority"/>
    <node id="10155310299" x="6388.44" y="4320.45" type="priority"/>
    <node id="10155310301" x="6490.08" y="4425.80" type="priority"/>
    <node id="10155310314" x="6430.77" y="4379.76" type="priority"/>
    <node id="10155310315" x="6442.55" y="4396.28" type="priority"/>
    <node id="10155310316" x="6428.10" y="4405.61" type="priority" fringe="inner">
        <param key="buffer_stop" value="true"/>
    </node>
    <node id="10155404072" x="6245.93" y="3891.36" type="priority"/>
    <node id="10155404077" x="6152.16" y="3730.15" type="priority"/>
    <node id="10155404088" x="6307.62" y="3797.71" type="dead_end"/>
    <node id="10155404089" x="6295.13" y="3837.53" type="priority"/>
    <node id="10155404090" x="6296.54" y="3833.72" type="priority"/>
    <node id="10155404091" x="6301.47" y="3820.46" type="priority"/>
    <node id="10155404102" x="6288.82" y="3851.46" type="dead_end"/>
    <node id="10155404113" x="6279.69" y="3919.64" type="dead_end"/>
    <node id="10155404114" x="6272.95" y="3917.50" type="dead_end"/>
    <node id="10155404115" x="6264.41" y="3914.80" type="dead_end"/>
    <node id="10155404116" x="6325.94" y="3849.72" type="dead_end"/>
    <node id="10155418717" x="6308.81" y="3843.88" type="priority"/>
    <node id="10155418724" x="6340.08" y="3854.56" type="priority"/>
    <node id="10155418727" x="6280.99" y="3923.17" type="priority"/>
    <node id="10155418728" x="6278.70" y="3922.41" type="dead_end"/>
    <node id="10155418729" x="6297.70" y="3928.97" type="dead_end"/>
    <node id="10155418738" x="6306.97" y="3945.77" type="priority"/>
    <node id="10156211291" x="6344.28" y="4176.21" type="dead_end"/>
    <node id="10156211304" x="6148.80" y="4115.07" type="right_before_left"/>
    <node id="10156211305" x="6157.58" y="4119.59" type="priority"/>
    <node id="10156211311" x="6170.53" y="4094.87" type="priority"/>
    <node id="10156211312" x="6161.98" y="4090.46" type="right_before_left"/>
    <node id="10157206601" x="6247.87" y="4090.64" type="priority"/>
    <node id="10157206602" x="6228.06" y="4103.40" type="priority"/>
    <node id="10157206610" x="6291.41" y="4153.98" type="dead_end"/>
    <node id="10157237929" x="6266.34" y="4048.25" type="right_before_left"/>
    <node id="10157237932" x="6246.16" y="4058.04" type="priority"/>
    <node id="10157292890" x="6311.22" y="4107.16" type="dead_end"/>
    <node id="10157292891" x="6601.90" y="4525.72" type="right_before_left"/>
    <node id="10157292893" x="6567.11" y="4421.83" type="priority"/>
    <node id="10157462236" x="5172.94" y="4538.82" type="priority"/>
    <node id="10157462237" x="5129.49" y="4535.41" type="priority"/>
    <node id="10157462238" x="5177.30" y="4550.93" type="right_before_left"/>
    <node id="10157462239" x="5181.22" y="4567.05" type="right_before_left"/>
    <node id="10157462240" x="5182.63" y="4583.04" type="right_before_left"/>
    <node id="10157462241" x="5181.66" y="4599.05" type="right_before_left"/>
    <node id="10157462242" x="5181.73" y="4615.78" type="right_before_left"/>
    <node id="10157462243" x="5182.83" y="4630.74" type="right_before_left"/>
    <node id="10157462244" x="5183.78" y="4644.52" type="right_before_left"/>
    <node id="10157462245" x="5146.00" y="4633.13" type="priority"/>
    <node id="10157462246" x="5140.10" y="4600.22" type="right_before_left"/>
    <node id="10157462247" x="5138.57" y="4583.50" type="right_before_left"/>
    <node id="10157462248" x="5139.85" y="4566.83" type="right_before_left"/>
    <node id="10157462249" x="5142.04" y="4551.26" type="right_before_left"/>
    <node id="10157462250" x="5143.22" y="4617.62" type="right_before_left"/>
    <node id="10157462252" x="5133.67" y="4651.54" type="priority"/>
    <node id="10157462253" x="5184.98" y="4655.29" type="right_before_left"/>
    <node id="10157462254" x="5185.06" y="4672.58" type="right_before_left"/>
    <node id="10157462255" x="5179.72" y="4690.45" type="right_before_left"/>
    <node id="10157462256" x="5177.64" y="4705.28" type="right_before_left"/>
    <node id="10157462274" x="5153.98" y="4691.06" type="right_before_left"/>
    <node id="10157462275" x="5151.94" y="4673.46" type="right_before_left"/>
    <node id="10157462277" x="5199.79" y="4542.83" type="priority"/>
    <node id="10157462312" x="5153.47" y="4480.03" type="right_before_left"/>
    <node id="10157462317" x="5193.74" y="4495.03" type="right_before_left"/>
    <node id="10157462318" x="5187.84" y="4513.01" type="right_before_left"/>
    <node id="10157462320" x="5183.27" y="4524.18" type="right_before_left"/>
    <node id="10157462323" x="5133.22" y="4514.46" type="priority"/>
    <node id="10157462329" x="5225.10" y="4525.59" type="right_before_left"/>
    <node id="10160416818" x="5417.68" y="5010.31" type="right_before_left"/>
    <node id="10160416819" x="5418.99" y="5049.18" type="right_before_left"/>
    <node id="10160416820" x="5440.66" y="5060.70" type="priority"/>
    <node id="10160416825" x="5392.79" y="5048.02" type="right_before_left"/>
    <node id="10160416826" x="5402.80" y="5052.62" type="priority"/>
    <node id="10160416828" x="5377.49" y="5061.03" type="right_before_left"/>
    <node id="10160416829" x="5385.93" y="5044.24" type="right_before_left"/>
    <node id="10160416838" x="5405.76" y="5005.94" type="right_before_left"/>
    <node id="10160416857" x="5488.74" y="4891.77" type="right_before_left"/>
    <node id="10160416872" x="5525.38" y="4915.32" type="priority"/>
    <node id="10188963670" x="6440.18" y="4365.28" type="priority"/>
    <node id="10188963673" x="6313.38" y="4118.68" type="dead_end"/>
    <node id="10188963674" x="6398.57" y="4305.11" type="priority"/>
    <node id="10188963684" x="6295.13" y="4074.14" type="dead_end"/>
    <node id="10207488002" x="6283.56" y="4045.54" type="dead_end"/>
    <node id="10207488003" x="6321.75" y="4114.49" type="dead_end"/>
    <node id="10207488004" x="6301.56" y="4086.37" type="dead_end"/>
    <node id="10207488006" x="6280.89" y="4061.59" type="dead_end"/>
    <node id="10207488007" x="6299.67" y="4087.38" type="priority"/>
    <node id="10207488009" x="6273.21" y="4030.95" type="dead_end"/>
    <node id="10207488010" x="6267.59" y="4015.38" type="dead_end"/>
    <node id="10218080534" x="6324.69" y="4139.73" type="dead_end"/>
    <node id="10296662961" x="5659.02" y="11235.19" type="dead_end"/>
    <node id="10296662964" x="5656.81" y="11239.18" type="priority"/>
    <node id="10615043001" x="5304.75" y="4875.23" type="priority"/>
    <node id="10615387415" x="5140.44" y="4648.33" type="right_before_left"/>
    <node id="10615387419" x="5135.41" y="4535.87" type="right_before_left"/>
    <node id="10615387420" x="5137.72" y="4522.58" type="right_before_left"/>
    <node id="10615387421" x="5139.55" y="4516.21" type="right_before_left"/>
    <node id="10615387433" x="5173.56" y="4372.12" type="right_before_left"/>
    <node id="10615387438" x="5165.79" y="4322.14" type="right_before_left"/>
    <node id="10615387439" x="5164.49" y="4316.47" type="right_before_left"/>
    <node id="10615387440" x="5163.35" y="4311.48" type="right_before_left"/>
    <node id="10615387451" x="5067.60" y="3998.49" type="right_before_left"/>
    <node id="10615387465" x="5390.39" y="3760.27" type="priority"/>
    <node id="10615387467" x="5431.85" y="3730.93" type="right_before_left"/>
    <node id="10615431068" x="5061.40" y="3997.13" type="priority"/>
    <node id="10615431069" x="5051.21" y="3998.23" type="priority"/>
    <node id="10615431076" x="4791.70" y="4120.09" type="right_before_left"/>
    <node id="10615651693" x="5050.19" y="4516.25" type="right_before_left"/>
    <node id="10615651697" x="5000.31" y="4468.19" type="right_before_left"/>
    <node id="10615651698" x="5009.76" y="4507.92" type="right_before_left"/>
    <node id="10615651699" x="5017.35" y="4470.84" type="right_before_left"/>
    <node id="10615651701" x="5038.21" y="4435.43" type="right_before_left"/>
    <node id="10615651703" x="5089.17" y="4484.53" type="right_before_left"/>
    <node id="10615651704" x="5081.76" y="4522.68" type="right_before_left"/>
    <node id="10615663006" x="5022.11" y="4510.47" type="right_before_left"/>
    <node id="10615663009" x="5090.60" y="4524.47" type="right_before_left"/>
    <node id="10615663011" x="5081.68" y="4443.62" type="right_before_left"/>
    <node id="10615663013" x="5073.47" y="4481.58" type="right_before_left"/>
    <node id="10615663014" x="5066.65" y="4519.61" type="right_before_left"/>
    <node id="10615663016" x="5057.54" y="4478.38" type="right_before_left"/>
    <node id="10615663017" x="5065.04" y="4440.48" type="right_before_left"/>
    <node id="10615663018" x="5049.73" y="4437.60" type="right_before_left"/>
    <node id="10615663019" x="5042.34" y="4475.31" type="right_before_left"/>
    <node id="10615663020" x="5034.98" y="4513.11" type="right_before_left"/>
    <node id="10615663021" x="5016.72" y="4403.66" type="priority"/>
    <node id="10615663028" x="5034.94" y="4434.95" type="priority"/>
    <node id="10615663030" x="5031.30" y="4469.57" type="priority"/>
    <node id="10615714065" x="4998.25" y="4549.79" type="priority"/>
    <node id="10615727998" x="5386.35" y="4870.84" type="right_before_left"/>
    <node id="10615727999" x="5362.87" y="4852.43" type="priority"/>
    <node id="10615740612" x="5393.37" y="5097.24" type="priority"/>
    <node id="10615740614" x="5260.32" y="4829.57" type="right_before_left"/>
    <node id="10615740615" x="5267.83" y="4825.71" type="right_before_left"/>
    <node id="10615740616" x="5269.60" y="4805.63" type="priority"/>
    <node id="10615740621" x="5323.82" y="4820.30" type="priority"/>
    <node id="10615740623" x="5309.78" y="4936.43" type="priority"/>
    <node id="10615795364" x="5140.59" y="4368.90" type="priority"/>
    <node id="10615795380" x="4914.39" y="4052.85" type="right_before_left"/>
    <node id="10615795381" x="4903.30" y="4049.66" type="right_before_left"/>
    <node id="10615795382" x="4894.83" y="4046.24" type="priority"/>
    <node id="10615795383" x="5049.75" y="4095.03" type="priority"/>
    <node id="10615795384" x="4983.19" y="4116.87" type="right_before_left"/>
    <node id="10615795386" x="4950.88" y="4032.87" type="right_before_left"/>
    <node id="10615795387" x="4970.43" y="4085.46" type="right_before_left"/>
    <node id="10615795389" x="4984.57" y="4082.75" type="right_before_left"/>
    <node id="10615795391" x="5026.24" y="4102.74" type="right_before_left"/>
    <node id="10615795392" x="4993.80" y="4105.60" type="priority"/>
    <node id="10615795393" x="5000.86" y="4077.31" type="right_before_left"/>
    <node id="10615795394" x="5009.01" y="4101.16" type="priority"/>
    <node id="10615795396" x="4930.93" y="4100.00" type="priority"/>
    <node id="10615795397" x="5041.34" y="4097.79" type="right_before_left"/>
    <node id="10615795398" x="5029.94" y="4061.97" type="priority"/>
    <node id="10615795399" x="4853.77" y="4266.03" type="priority"/>
    <node id="10615797317" x="5158.83" y="4317.48" type="priority"/>
    <node id="10615797318" x="5157.24" y="4312.82" type="priority"/>
    <node id="10617767982" x="5411.32" y="3817.99" type="priority"/>
    <node id="10617767984" x="5256.28" y="3897.73" type="right_before_left"/>
    <node id="10617767985" x="5241.76" y="3904.23" type="priority"/>
    <node id="10617767987" x="5216.75" y="3874.76" type="right_before_left"/>
    <node id="10617767988" x="5213.46" y="3868.44" type="priority"/>
    <node id="10617767992" x="5235.80" y="3910.35" type="priority"/>
    <node id="10617767994" x="5137.31" y="3970.55" type="right_before_left"/>
    <node id="10617768003" x="5429.46" y="3774.01" type="priority"/>
    <node id="10617791105" x="5421.90" y="3778.70" type="priority"/>
    <node id="10617791111" x="5390.23" y="3883.97" type="priority"/>
    <node id="10617791116" x="5283.45" y="3905.00" type="priority"/>
    <node id="10617806845" x="6360.60" y="4719.36" type="priority"/>
    <node id="10617806848" x="6341.33" y="4694.77" type="right_before_left"/>
    <node id="10617806852" x="6147.11" y="4605.59" type="priority"/>
    <node id="10617806853" x="6157.11" y="4626.30" type="right_before_left"/>
    <node id="10617806856" x="6152.55" y="4593.50" type="priority"/>
    <node id="10758482507" x="5065.59" y="3980.15" type="priority"/>
    <node id="10916941450" x="4306.12" y="8161.83" type="priority"/>
    <node id="10916941479" x="4724.87" y="8286.23" type="priority"/>
    <node id="10916941480" x="4687.32" y="8211.39" type="right_before_left"/>
    <node id="10916941481" x="4671.21" y="8277.87" type="priority"/>
    <node id="10916941484" x="4580.47" y="8270.44" type="priority"/>
    <node id="10936917893" x="4672.25" y="6501.55" type="priority"/>
    <node id="10936917894" x="4684.42" y="6464.04" type="priority"/>
    <node id="10936917895" x="4712.39" y="6472.63" type="priority"/>
    <node id="10936917896" x="4707.73" y="6512.18" type="priority"/>
    <node id="10946202963" x="4889.36" y="7133.28" type="priority"/>
    <node id="1097702944#1-AddedOffRampNode" x="6309.56" y="6435.55" type="priority"/>
    <node id="11134572375" x="1937.69" y="4176.49" type="priority"/>
    <node id="11134572377" x="1955.63" y="4170.49" type="priority"/>
    <node id="11134572378" x="1971.72" y="4241.37" type="priority"/>
    <node id="11134572379" x="1994.94" y="4223.63" type="priority"/>
    <node id="11134572380" x="1995.76" y="4267.49" type="priority"/>
    <node id="11134572382" x="1998.09" y="4245.86" type="priority"/>
    <node id="11134572383" x="2076.82" y="4319.33" type="priority"/>
    <node id="11134572384" x="2047.22" y="4389.49" type="priority"/>
    <node id="11134572387" x="2132.36" y="4485.54" type="priority"/>
    <node id="11134572388" x="2142.00" y="4473.26" type="priority"/>
    <node id="11134572389" x="1848.84" y="4443.52" type="priority"/>
    <node id="11134572390" x="1861.42" y="4445.97" type="priority"/>
    <node id="11134572391" x="1859.16" y="4398.85" type="priority"/>
    <node id="11134572392" x="1876.02" y="4390.70" type="priority"/>
    <node id="11134572394" x="1833.04" y="4595.92" type="priority"/>
    <node id="11134572395" x="1874.22" y="4630.91" type="priority"/>
    <node id="11134591745" x="3788.24" y="5618.58" type="priority"/>
    <node id="11134591746" x="3836.57" y="5653.41" type="priority"/>
    <node id="11134591747" x="3723.53" y="6187.07" type="priority"/>
    <node id="11407821363" x="1691.71" y="4182.93" type="priority"/>
    <node id="11407821371" x="1917.17" y="4077.37" type="priority"/>
    <node id="11482337859" x="6088.68" y="7447.68" type="priority"/>
    <node id="11482337860" x="6090.32" y="7444.26" type="priority"/>
    <node id="11635674255" x="6194.03" y="3879.35" type="priority"/>
    <node id="11635674260" x="5980.86" y="4592.77" type="priority"/>
    <node id="11635674264" x="5985.95" y="4608.18" type="priority"/>
    <node id="11635674265" x="6003.31" y="4612.69" type="right_before_left"/>
    <node id="11635674266" x="6004.04" y="4636.16" type="priority"/>
    <node id="11635684969" x="6006.67" y="4600.18" type="priority"/>
    <node id="11635684992" x="6792.83" y="5068.96" type="right_before_left"/>
    <node id="11635684993" x="6787.23" y="5085.56" type="right_before_left"/>
    <node id="11635684994" x="6801.18" y="5090.06" type="priority"/>
    <node id="11635684996" x="6770.58" y="5061.72" type="right_before_left"/>
    <node id="11635684997" x="6698.96" y="5097.40" type="priority"/>
    <node id="11635684999" x="6739.12" y="5109.72" type="right_before_left"/>
    <node id="11635685000" x="6726.69" y="5153.57" type="priority"/>
    <node id="11635685009" x="6824.95" y="5071.88" type="priority"/>
    <node id="11653355650" x="2553.88" y="9646.40" type="priority"/>
    <node id="11653355660" x="2727.75" y="9691.60" type="priority"/>
    <node id="11653355661" x="2965.15" y="9997.16" type="priority"/>
    <node id="11653355663" x="2986.18" y="9915.08" type="priority"/>
    <node id="11657414553" x="4193.01" y="5940.16" type="right_before_left"/>
    <node id="11657414555" x="4120.19" y="5847.55" type="priority"/>
    <node id="11657414562" x="4145.13" y="5869.33" type="right_before_left"/>
    <node id="11657414566" x="4740.35" y="5691.86" type="dead_end"/>
    <node id="11657420570" x="4757.45" y="5716.16" type="dead_end"/>
    <node id="11657420575" x="4768.54" y="5755.08" type="dead_end"/>
    <node id="11657420580" x="4779.49" y="5790.72" type="dead_end"/>
    <node id="11657420587" x="4786.86" y="5828.53" type="dead_end"/>
    <node id="11657420588" x="4767.34" y="5833.80" type="priority"/>
    <node id="11657420589" x="4745.77" y="5761.94" type="priority"/>
    <node id="11657420590" x="4788.03" y="5749.21" type="dead_end"/>
    <node id="11657420591" x="4776.48" y="5710.58" type="dead_end"/>
    <node id="11657420592" x="4734.00" y="5723.03" type="right_before_left"/>
    <node id="11657420593" x="4762.48" y="5663.72" type="dead_end"/>
    <node id="11657420594" x="4798.56" y="5784.45" type="dead_end"/>
    <node id="11657420597" x="4795.21" y="5826.28" type="dead_end"/>
    <node id="11657420604" x="4780.97" y="5872.18" type="dead_end"/>
    <node id="11657420613" x="4777.10" y="5916.86" type="right_before_left"/>
    <node id="11657420614" x="4719.20" y="5674.06" type="priority"/>
    <node id="11657420615" x="4774.87" y="5859.10" type="priority"/>
    <node id="11657420616" x="4756.73" y="5798.20" type="priority"/>
    <node id="11657420618" x="4737.80" y="5805.15" type="priority"/>
    <node id="11657420631" x="6406.60" y="7114.55" type="priority"/>
    <node id="11657420637" x="5551.46" y="7756.00" type="priority"/>
    <node id="11657420638" x="5542.86" y="7737.58" type="priority"/>
    <node id="11657420641" x="5614.69" y="7718.33" type="right_before_left"/>
    <node id="11657420642" x="5561.52" y="7750.39" type="right_before_left"/>
    <node id="11657420643" x="5569.34" y="7764.22" type="right_before_left"/>
    <node id="11657420644" x="5644.47" y="7734.64" type="priority"/>
    <node id="11657420646" x="5697.10" y="7844.63" type="right_before_left"/>
    <node id="11657420650" x="5633.98" y="7741.10" type="right_before_left"/>
    <node id="11657420651" x="5626.61" y="7736.84" type="right_before_left"/>
    <node id="11879134806" x="5959.29" y="4816.76" type="priority"/>
    <node id="11879134807" x="5891.41" y="4804.49" type="priority"/>
    <node id="11879169732" x="5833.93" y="6194.16" type="priority"/>
    <node id="11879169735" x="5789.94" y="6141.30" type="priority"/>
    <node id="11879175532" x="2134.05" y="4373.53" type="priority" fringe="inner">
        <param key="buffer_stop" value="true"/>
    </node>
    <node id="11879175533" x="2137.54" y="4345.80" type="right_before_left"/>
    <node id="11879175534" x="2157.27" y="4329.44" type="priority" fringe="inner">
        <param key="buffer_stop" value="true"/>
    </node>
    <node id="11879175540" x="2137.28" y="4301.19" type="priority" fringe="inner">
        <param key="buffer_stop" value="true"/>
    </node>
    <node id="11879175545" x="2113.64" y="4328.82" type="priority"/>
    <node id="11955322455" x="4788.74" y="8340.96" type="priority"/>
    <node id="11955322456" x="4783.46" y="8337.53" type="priority"/>
    <node id="11955322457" x="4973.51" y="7897.38" type="priority"/>
    <node id="11955335830" x="4963.04" y="7965.95" type="priority"/>
    <node id="11993511423" x="4620.98" y="6620.07" type="priority" fringe="inner">
        <param key="buffer_stop" value="true"/>
    </node>
    <node id="11993511424" x="4602.65" y="6616.64" type="right_before_left"/>
    <node id="11993511425" x="4579.99" y="6612.39" type="priority" fringe="inner">
        <param key="buffer_stop" value="true"/>
    </node>
    <node id="11993511426" x="4599.40" y="6633.78" type="priority"/>
    <node id="12041980512" x="4197.88" y="5819.85" type="priority"/>
    <node id="120625245-AddedOffRampNode" x="4778.86" y="4414.95" type="priority"/>
    <node id="12062851341" x="4852.10" y="3982.55" type="priority"/>
    <node id="12062851344" x="4821.04" y="3940.32" type="priority"/>
    <node id="12062854891" x="6729.63" y="5178.05" type="priority"/>
    <node id="12062854919" x="6801.45" y="5028.38" type="priority"/>
    <node id="12062854921" x="6786.16" y="5043.40" type="priority"/>
    <node id="12062871384" x="4832.29" y="3969.55" type="right_before_left"/>
    <node id="12062871388" x="4848.17" y="4003.60" type="priority"/>
    <node id="12062871394" x="4596.96" y="4067.95" type="right_before_left"/>
    <node id="12062871396" x="4615.89" y="4018.22" type="priority"/>
    <node id="12062871400" x="4678.11" y="4173.17" type="right_before_left"/>
    <node id="12062871402" x="4615.57" y="3965.53" type="priority"/>
    <node id="12062871406" x="4709.11" y="4152.72" type="right_before_left"/>
    <node id="12063042546" x="5925.62" y="4378.75" type="priority"/>
    <node id="12269154323" x="2164.03" y="4308.79" type="priority"/>
    <node id="12277130469" x="6868.57" y="5411.80" type="priority"/>
    <node id="12277130473" x="6854.63" y="5310.77" type="priority"/>
    <node id="12277130477" x="6865.54" y="5265.62" type="priority"/>
    <node id="12383244131" x="3346.55" y="6147.30" type="priority"/>
    <node id="12383290930" x="3709.57" y="5993.72" type="priority"/>
    <node id="12383771346" x="4123.56" y="6001.42" type="priority" fringe="inner">
        <param key="buffer_stop" value="true"/>
    </node>
    <node id="12383775869" x="3977.34" y="5975.74" type="priority"/>
    <node id="12383775870" x="3960.46" y="5990.20" type="priority"/>
    <node id="12383858969" x="3740.49" y="6072.61" type="priority"/>
    <node id="12383858978" x="3749.09" y="6124.47" type="priority"/>
    <node id="12383858979" x="3728.40" y="6111.28" type="priority"/>
    <node id="12383858988" x="3727.34" y="6176.17" type="priority"/>
    <node id="12383858991" x="3706.96" y="6162.91" type="priority"/>
    <node id="12383858992" x="3701.89" y="6176.04" type="priority"/>
    <node id="12383870757" x="3755.00" y="5652.62" type="priority"/>
    <node id="12384023096" x="3688.84" y="5763.84" type="priority"/>
    <node id="12384056535" x="3870.22" y="6477.31" type="priority"/>
    <node id="12384056537" x="3858.47" y="6513.74" type="dead_end"/>
    <node id="12384056538" x="3853.83" y="6538.20" type="dead_end"/>
    <node id="12384056539" x="3848.87" y="6475.67" type="priority"/>
    <node id="12384063378" x="3720.71" y="6287.00" type="priority"/>
    <node id="12384673402" x="3532.09" y="5706.26" type="priority"/>
    <node id="12384916733" x="3497.16" y="6273.65" type="priority"/>
    <node id="12384916734" x="3469.58" y="6265.21" type="right_before_left"/>
    <node id="12384916735" x="3463.43" y="6282.29" type="priority"/>
    <node id="12384916736" x="3473.73" y="6253.15" type="priority"/>
    <node id="12673111994" x="4177.94" y="8420.27" type="priority"/>
    <node id="12673181421" x="4172.60" y="8455.06" type="priority"/>
    <node id="12673181423" x="4304.89" y="8478.79" type="priority"/>
    <node id="1352124054" x="4526.81" y="6481.66" type="priority"/>
    <node id="1352124056" x="6258.17" y="7639.54" type="priority"/>
    <node id="1352124127" x="4814.73" y="6491.40" type="priority"/>