<?xml version="1.0" encoding="UTF-8"?>

<!-- generated on 2025-04-04 16:25:30 by Eclipse SUMO netconvert Version 1.19.0
<configuration xmlns:xsi="http://www.w3.org/2001/XMLSchema-instance" xsi:noNamespaceSchemaLocation="http://sumo.dlr.de/xsd/netconvertConfiguration.xsd">

    <input>
        <sumo-net-file value="les_mureaux/les_mureaux.net.xml"/>
    </input>

    <output>
        <plain-output-prefix value="les_mureaux/les_mureaux"/>
    </output>

    <processing>
        <geometry.min-radius.fix.railways value="false"/>
        <geometry.max-grade.fix value="false"/>
        <offset.disable-normalization value="true"/>
        <lefthand value="0"/>
    </processing>

    <tls_building>
        <tls.ignore-internal-junction-jam value="1"/>
    </tls_building>

    <junctions>
        <no-turnarounds value="true"/>
        <junctions.corner-detail value="5"/>
        <junctions.limit-turn-speed value="5.50"/>
        <rectangular-lane-cut value="0"/>
    </junctions>

    <pedestrian>
        <walkingareas value="0"/>
    </pedestrian>

</configuration>
-->

<edges version="1.16" xmlns:xsi="http://www.w3.org/2001/XMLSchema-instance" xsi:noNamespaceSchemaLocation="http://sumo.dlr.de/xsd/edges_file.xsd">
    <location netOffset="-415604.09,-5420850.19" convBoundary="0.00,0.00,11476.14,10704.58" origBoundary="1.815749,48.935914,2.003374,49.031655" projParameter="+proj=utm +zone=31 +ellps=WGS84 +datum=WGS84 +units=m +no_defs"/>

    <edge id="-1005516392" from="619156029" to="9277239534" priority="1" type="highway.path" numLanes="1" speed="5.56" width="2.00" allow="pedestrian bicycle"/>
    <edge id="-1005516397" from="619156150" to="619156096" priority="4" type="highway.unclassified" numLanes="1" speed="13.89" shape="5311.10,8019.69 5295.93,8029.30 5285.74,8033.02 5277.72,8035.93 5261.80,8039.77 5245.64,8041.53 5234.59,8046.71 5224.27,8057.43 5213.70,8064.47 5175.72,8082.13 5155.21,8090.17 5130.09,8099.17 5100.37,8113.33" disallow="tram rail_urban rail rail_electric rail_fast ship"/>
    <edge id="-1005516401" from="2214912668" to="2214912675" priority="1" type="highway.service" numLanes="1" speed="5.56" allow="pedestrian delivery bicycle"/>
    <edge id="-1005516406#0" from="2214912643" to="3729524626" priority="3" type="highway.residential" numLanes="1" speed="13.89" shape="5439.74,7939.41 5436.64,7940.91 5433.95,7941.64 5429.98,7941.63 5420.59,7940.28 5407.75,7938.02 5398.76,7936.88 5385.07,7936.14 5372.07,7936.02 5358.53,7936.52 5355.90,7936.59" disallow="tram rail_urban rail rail_electric rail_fast ship"/>
    <edge id="-1012173543" from="9338183020" to="9338183026" priority="1" type="highway.path" numLanes="1" speed="5.56" shape="8075.42,6182.97 8071.16,6186.66 8053.41,6194.82 8033.02,6203.72 8018.82,6219.37 8009.28,6232.22 7999.45,6241.85" width="2.00" allow="pedestrian bicycle"/>
    <edge id="-1017837112#0" from="9388257691" to="9388257695" priority="1" type="highway.service" numLanes="1" speed="5.56" shape="4290.29,7777.58 4288.40,7786.19 4287.32,7791.13" allow="pedestrian delivery bicycle"/>
    <edge id="-1017837112#1" from="9388257693" to="9388257691" priority="1" type="highway.service" numLanes="1" speed="5.56" shape="4307.10,7761.36 4294.46,7758.60 4290.29,7777.58" allow="pedestrian delivery bicycle"/>
    <edge id="-1017837112#2" from="9388257691" to="9388257693" priority="1" type="highway.service" numLanes="1" speed="5.56" shape="4290.29,7777.58 4302.92,7780.35 4307.10,7761.36" allow="pedestrian delivery bicycle"/>
    <edge id="-1026653331#0" from="4920616351" to="456815973" priority="10" type="highway.tertiary" numLanes="1" speed="8.33" disallow="tram rail_urban rail rail_electric rail_fast ship"/>
    <edge id="-1026653331#1" from="cluster_11862798888_538418804" to="4920616351" priority="10" type="highway.tertiary" numLanes="1" speed="8.33" shape="6550.35,8305.78 6584.66,8324.05" disallow="tram rail_urban rail rail_electric rail_fast ship"/>
    <edge id="-1026653332" from="442019079" to="9465660038" priority="3" type="highway.residential" numLanes="1" speed="8.33" disallow="tram rail_urban rail rail_electric rail_fast ship"/>
    <edge id="-1026653333" from="9465660039" to="457351456" priority="10" type="highway.tertiary" numLanes="1" speed="11.11" shape="7808.80,8628.22 7816.69,8624.78 7833.55,8615.84" disallow="tram rail_urban rail rail_electric rail_fast ship"/>
    <edge id="-1026653334#0" from="cluster_2927179856_456815938" to="cluster_442019071_456815934" priority="10" type="highway.tertiary" numLanes="1" speed="8.33" shape="7261.93,8620.08 7284.13,8668.52" disallow="tram rail_urban rail rail_electric rail_fast ship"/>
    <edge id="-1026653334#2" from="456976452" to="cluster_2927179856_456815938" priority="10" type="highway.tertiary" numLanes="1" speed="8.33" shape="7029.30,8533.94 7036.57,8534.00 7164.76,8561.69 7188.08,8567.68 7208.20,8575.03 7220.74,8581.31 7228.33,8585.95 7255.03,8611.69" disallow="tram rail_urban rail rail_electric rail_fast ship"/>
    <edge id="-1026653334#3" from="9465660040" to="456976452" priority="10" type="highway.tertiary" numLanes="1" speed="8.33" shape="6959.23,8515.81 7020.84,8529.56 7029.30,8533.94" disallow="tram rail_urban rail rail_electric rail_fast ship"/>
    <edge id="-1026653335#0" from="457351766" to="457351746" priority="10" type="highway.tertiary" numLanes="1" speed="11.11" shape="7098.85,8887.78 7088.55,8884.93 7077.63,8883.15 7062.82,8882.14 7054.62,8884.28 7051.65,8886.32" disallow="tram rail_urban rail rail_electric rail_fast ship"/>
    <edge id="-1026653335#1" from="457351767" to="457351766" priority="10" type="highway.tertiary" numLanes="1" speed="11.11" shape="7181.01,8910.57 7166.85,8907.44 7098.85,8887.78" disallow="tram rail_urban rail rail_electric rail_fast ship"/>
    <edge id="-1027207855" from="5406763284" to="4827391551" priority="1" type="highway.track" numLanes="1" speed="5.56" shape="3009.78,2434.01 2998.73,2438.82 2966.90,2451.23 2936.90,2467.92 2891.33,2494.05 2845.98,2521.54 2798.40,2554.78 2767.04,2576.01 2756.57,2581.29" allow="pedestrian motorcycle moped bicycle"/>
    <edge id="-1047497681" from="9632091334" to="522062060" priority="4" type="highway.unclassified" numLanes="1" speed="8.33" shape="7132.76,3325.64 7123.48,3361.48 7118.14,3376.96 7115.96,3384.91" disallow="tram rail_urban rail rail_electric rail_fast ship"/>
    <edge id="-1047497682#0" from="428232550" to="cluster_2178448022_5530924909" priority="3" type="highway.residential" numLanes="1" speed="22.22" shape="5621.18,3181.35 5612.88,3178.44" disallow="tram rail_urban rail rail_electric rail_fast ship"/>
    <edge id="-1047497682#1" from="9632091335" to="428232550" priority="3" type="highway.residential" numLanes="1" speed="22.22" shape="5632.59,3185.19 5623.27,3182.06 5621.18,3181.35" disallow="tram rail_urban rail rail_electric rail_fast ship"/>
    <edge id="-1047614060" from="9633200558" to="2518564031" priority="3" type="highway.residential" numLanes="1" speed="8.33" shape="3141.41,2724.92 3184.31,2816.07 3218.51,2882.32" disallow="tram rail_urban rail rail_electric rail_fast ship"/>
    <edge id="-1056177185#0" from="9704891337" to="cluster_11861984861_9704891341" priority="1" type="highway.service" numLanes="1" speed="5.56" shape="4155.26,8564.50 4120.58,8543.73 4110.99,8537.99" allow="pedestrian delivery bicycle"/>
    <edge id="-1056177185#1" from="11867186895" to="9704891337" priority="1" type="highway.service" numLanes="1" speed="5.56" allow="pedestrian delivery bicycle"/>
    <edge id="-1056177185#2" from="9704891338" to="11867186895" priority="1" type="highway.service" numLanes="1" speed="5.56" shape="4141.44,8591.63 4155.68,8599.35 4171.10,8573.99 4165.07,8570.39" allow="pedestrian delivery bicycle"/>
    <edge id="-1056177185#3" from="9704891337" to="9704891338" priority="1" type="highway.service" numLanes="1" speed="5.56" allow="pedestrian delivery bicycle"/>
    <edge id="-1056177186" from="3857493715" to="3731326885" priority="1" type="highway.track" numLanes="1" speed="13.89" shape="4674.92,8894.28 4660.71,8886.77 4643.65,8871.05 4623.20,8831.37 4599.44,8806.01 4589.64,8789.16 4581.49,8774.29 4578.69,8764.25 4574.35,8750.41 4570.59,8743.53" allow="pedestrian motorcycle moped bicycle"/>
    <edge id="-1056177187" from="11867180947" to="9704891352" priority="1" type="highway.service" numLanes="1" speed="5.56" shape="5036.16,9009.57 4974.41,9046.24 4860.26,9122.39 4857.52,9123.91" allow="pedestrian delivery bicycle"/>
    <edge id="-1060200978" from="9740748150" to="9740748161" priority="1" type="highway.path" numLanes="1" speed="5.56" shape="6848.09,9049.57 6852.81,9078.44 6862.87,9096.30" width="2.00" allow="pedestrian bicycle"/>
    <edge id="-1060200979#0" from="9740748161" to="2132598088" priority="1" type="highway.path" numLanes="1" speed="5.56" shape="6862.87,9096.30 6912.18,9095.13 6975.97,9069.59 7010.72,9057.96 7046.79,9055.22" width="2.00" allow="pedestrian bicycle"/>
    <edge id="-1060200979#1" from="9740748152" to="9740748161" priority="1" type="highway.path" numLanes="1" speed="5.56" shape="6587.68,9313.82 6606.75,9324.31 6623.00,9300.42 6648.22,9267.11 6681.45,9224.20 6711.91,9185.74 6742.18,9155.40 6761.41,9141.82 6809.27,9114.36 6862.87,9096.30" width="2.00" allow="pedestrian bicycle"/>
    <edge id="-1060200980" from="9740748168" to="1679889585" priority="1" type="highway.track" numLanes="1" speed="5.56" shape="6393.31,9055.94 6384.26,9078.36 6375.93,9113.45 6378.13,9120.11 6444.12,9160.02" allow="pedestrian motorcycle moped bicycle"/>
    <edge id="-1075608214" from="9864637722" to="9864637723" priority="3" type="highway.residential" numLanes="1" speed="13.89" disallow="tram rail_urban rail rail_electric rail_fast ship"/>
    <edge id="-1075608216#1" from="1569347182" to="cluster_1569347297_1569347301_1569347367" priority="3" type="highway.residential" numLanes="1" speed="8.33" shape="3478.02,3368.50 3516.63,3387.78 3548.46,3397.61 3567.63,3403.81 3570.35,3404.69" disallow="tram rail_urban rail rail_electric rail_fast ship"/>
    <edge id="-1077171001#0" from="3730256636" to="3730256634" priority="1" type="highway.service" numLanes="1" speed="13.89" allow="pedestrian delivery bicycle"/>
    <edge id="-1077171001#1" from="3730256639" to="3730256636" priority="1" type="highway.service" numLanes="1" speed="13.89" allow="pedestrian delivery bicycle"/>
    <edge id="-1087084598" from="cluster_428695371_4924840860" to="9960350943" priority="4" type="highway.unclassified" numLanes="1" speed="8.33" shape="7773.45,2688.41 7759.44,2683.90" disallow="tram rail_urban rail rail_electric rail_fast ship"/>
    <edge id="-1087084600" from="9960350945" to="343595872" priority="4" type="highway.unclassified" numLanes="1" speed="8.33" shape="7957.19,2214.02 7955.96,2235.24 7952.57,2293.88 7952.21,2322.45" disallow="tram rail_urban rail rail_electric rail_fast ship"/>
    <edge id="-1089958393" from="619155724" to="cluster_11528189253_9984243601" priority="1" type="highway.path" numLanes="1" speed="5.56" shape="4445.82,7897.30 4391.52,7878.48" width="2.00" allow="pedestrian bicycle"/>
    <edge id="-1091359197#0" from="582532828" to="9995839313" priority="12" type="highway.primary" numLanes="2" speed="13.89" shape="2948.53,7124.46 2865.28,7087.90 2789.35,7054.61" disallow="tram rail_urban rail rail_electric rail_fast ship">
        <param key="ref" value="D 190"/>
    </edge>
    <edge id="-1091359197#1" from="9995839315" to="582532828" priority="12" type="highway.primary" numLanes="2" speed="13.89" shape="3011.34,7152.07 3005.10,7149.35 2995.70,7145.22 2978.20,7137.55 2948.53,7124.46" disallow="tram rail_urban rail rail_electric rail_fast ship">
        <param key="ref" value="D 190"/>
    </edge>
    <edge id="-1091359198" from="619343758" to="9995839315" priority="12" type="highway.primary" numLanes="2" speed="13.89" shape="3355.14,7312.03 3320.00,7290.73 3308.97,7284.28 3300.06,7279.42 3294.95,7276.99 3278.42,7269.37 3040.63,7164.94 3011.34,7152.07" disallow="tram rail_urban rail rail_electric rail_fast ship">
        <param key="ref" value="D 190"/>
    </edge>
    <edge id="-1106659670" from="10126707471" to="10126707469" priority="1" type="highway.service" numLanes="1" speed="2.78" allow="pedestrian delivery bicycle"/>
    <edge id="-1106659671#0" from="10126707470" to="10126707471" priority="1" type="highway.service" numLanes="1" speed="5.56" allow="pedestrian delivery bicycle"/>
    <edge id="-1106659671#1" from="5320395524" to="10126707470" priority="1" type="highway.service" numLanes="1" speed="5.56" allow="pedestrian delivery bicycle"/>
    <edge id="-1106659673#0" from="10126707509" to="10126707490" priority="1" type="highway.service" numLanes="1" speed="5.56" shape="5423.33,5233.46 5417.57,5265.99 5400.31,5339.23 5400.03,5354.11" allow="pedestrian delivery bicycle"/>
    <edge id="-1106659673#1" from="10126707472" to="10126707509" priority="1" type="highway.service" numLanes="1" speed="5.56" shape="5425.27,5222.51 5423.66,5231.55 5423.33,5233.46" allow="pedestrian delivery bicycle"/>
    <edge id="-1106659674" from="10126707485" to="10126707493" priority="1" type="highway.service" numLanes="1" speed="5.56" shape="5427.36,5205.45 5428.80,5198.68 5437.46,5157.67 5410.65,5152.28" allow="pedestrian delivery bicycle"/>
    <edge id="-1106659675#0" from="11899100349" to="11899100346" priority="1" type="highway.service" numLanes="1" speed="5.56" shape="5295.42,5316.01 5298.20,5319.59 5298.66,5323.62 5295.15,5346.63" allow="pedestrian delivery bicycle"/>
    <edge id="-1106659675#1" from="10126707495" to="11899100349" priority="1" type="highway.service" numLanes="1" speed="5.56" shape="5282.56,5214.60 5275.53,5215.48 5274.41,5223.94 5263.16,5298.94 5267.55,5308.86 5272.45,5313.01 5278.03,5314.34 5288.34,5315.11 5295.42,5316.01" allow="pedestrian delivery bicycle"/>
    <edge id="-1106659675#2" from="10126707510" to="10126707495" priority="1" type="highway.service" numLanes="1" speed="5.56" shape="5341.87,5208.72 5329.94,5213.91 5318.31,5217.83 5307.82,5219.66 5297.40,5216.70 5282.56,5214.60" allow="pedestrian delivery bicycle"/>
    <edge id="-1106659675#3" from="10185500677" to="10126707510" priority="1" type="highway.service" numLanes="1" speed="5.56" shape="5410.79,5210.02 5376.80,5203.39 5367.69,5202.96 5354.22,5205.02 5341.87,5208.72" allow="pedestrian delivery bicycle"/>
    <edge id="-1106659675#4" from="10126707481" to="10185500677" priority="1" type="highway.service" numLanes="1" speed="5.56" allow="pedestrian delivery bicycle"/>
    <edge id="-1106659677" from="10126707509" to="10126707504" priority="1" type="highway.service" numLanes="1" speed="5.56" shape="5423.33,5233.46 5400.37,5229.55 5388.99,5225.06 5383.92,5223.29 5374.40,5224.58 5346.02,5219.96" allow="pedestrian delivery bicycle"/>
    <edge id="-1106659679" from="10126707470" to="10126707513" priority="1" type="highway.service" numLanes="1" speed="5.56" shape="5557.18,5244.88 5548.31,5229.51 5522.94,5185.53 5533.90,5139.34 5558.32,5144.16 5549.68,5188.60" allow="pedestrian delivery bicycle"/>
    <edge id="-1106659680#0" from="cluster_10126707520_11899100366" to="11899100362" priority="1" type="highway.service" numLanes="1" speed="5.56" shape="5633.73,5264.23 5638.36,5296.13 5640.95,5344.11" allow="pedestrian delivery bicycle"/>
    <edge id="-1106659680#2" from="10126707522" to="cluster_10126707520_11899100366" priority="1" type="highway.service" numLanes="1" speed="5.56" shape="5608.05,5257.53 5612.06,5258.53 5623.56,5261.42" allow="pedestrian delivery bicycle"/>
    <edge id="-1106659682" from="5320395530" to="10126707522" priority="1" type="highway.service" numLanes="1" speed="5.56" shape="5593.09,5245.99 5598.10,5251.13 5603.10,5256.29 5608.05,5257.53" allow="pedestrian delivery bicycle"/>
    <edge id="-1107073478" from="10130114493" to="cluster_10130114491_12522810551_12522810552_3731326879" priority="4" type="highway.unclassified" numLanes="1" speed="13.89" shape="4417.61,8543.20 4424.98,8532.96 4462.65,8561.18" disallow="tram rail_urban rail rail_electric rail_fast ship"/>
    <edge id="-1107073479" from="10130114496" to="10130114494" priority="1" type="highway.path" numLanes="1" speed="5.56" shape="4402.52,8475.62 4460.13,8514.95 4488.43,8519.93" width="2.00" allow="pedestrian bicycle"/>
    <edge id="-1107401567#0" from="758723501" to="cluster_12551016163_12551016167_5320461702_5406255571" priority="11" type="highway.secondary" numLanes="1" speed="8.33" shape="4268.79,5983.45 4271.94,5984.91 4277.70,5987.59 4304.86,6000.20 4429.14,6057.97 4476.69,6079.43 4483.58,6082.53 4553.10,6113.56 4562.15,6117.97" disallow="tram rail_urban rail rail_electric rail_fast ship"/>
    <edge id="-1107401567#1" from="758723287" to="758723501" priority="11" type="highway.secondary" numLanes="1" speed="8.33" shape="4234.98,5968.18 4243.38,5971.97 4268.79,5983.45" disallow="tram rail_urban rail rail_electric rail_fast ship"/>
    <edge id="-1107401570#0" from="cluster_10132821255_10132821256_10132821259_10132821260_#2more" to="11897324218" priority="11" type="highway.secondary" numLanes="1" speed="8.33" shape="4115.93,5907.37 4123.37,5910.84 4161.95,5930.17" disallow="tram rail_urban rail rail_electric rail_fast ship"/>
    <edge id="-1107401571#0" from="11897324413" to="cluster_10132821255_10132821256_10132821259_10132821260_#2more" priority="11" type="highway.secondary" numLanes="1" speed="8.33" shape="3722.97,5703.75 3731.04,5707.94 3748.70,5717.04 4010.74,5852.58 4099.69,5898.60 4104.74,5901.08" disallow="tram rail_urban rail rail_electric rail_fast ship"/>
    <edge id="-1107401573#0" from="758722773" to="cluster_758723152_758723411" priority="12" type="highway.primary" numLanes="1" speed="13.89" shape="4345.72,6547.51 4355.25,6558.47 4409.63,6616.12 4415.77,6622.27 4428.73,6635.12" disallow="tram rail_urban rail rail_electric rail_fast ship">
        <param key="ref" value="D 14"/>
    </edge>
    <edge id="-1107401573#1" from="11893663266" to="758722773" priority="12" type="highway.primary" numLanes="1" speed="13.89" shape="4263.85,6463.36 4287.40,6486.96 4345.72,6547.51" disallow="tram rail_urban rail rail_electric rail_fast ship">
        <param key="ref" value="D 14"/>
    </edge>
    <edge id="-1107401573#2" from="758723422" to="11893663266" priority="12" type="highway.primary" numLanes="1" speed="13.89" shape="4222.61,6421.78 4230.54,6429.98 4263.85,6463.36" disallow="tram rail_urban rail rail_electric rail_fast ship">
        <param key="ref" value="D 14"/>
    </edge>
    <edge id="-1107401573#3" from="758723489" to="758723422" priority="12" type="highway.primary" numLanes="1" speed="13.89" disallow="tram rail_urban rail rail_electric rail_fast ship">
        <param key="ref" value="D 14"/>
    </edge>
    <edge id="-1112772637#0" from="763545495" to="10757695225" priority="3" type="highway.residential" numLanes="1" speed="8.33" shape="4844.29,5091.30 4841.44,5090.67 4837.11,5089.98" disallow="tram rail_urban rail rail_electric rail_fast ship"/>
    <edge id="-1112772637#1" from="cluster_10181326306_763545440" to="763545495" priority="3" type="highway.residential" numLanes="1" speed="8.33" shape="4894.15,5103.40 4844.29,5091.30" disallow="tram rail_urban rail rail_electric rail_fast ship"/>
    <edge id="-1112772637#3" from="10181326279" to="cluster_10181326306_763545440" priority="3" type="highway.residential" numLanes="1" speed="8.33" shape="4915.90,5108.47 4903.51,5105.68" disallow="tram rail_urban rail rail_electric rail_fast ship"/>
    <edge id="-1112772637#4" from="10181326282" to="10181326279" priority="3" type="highway.residential" numLanes="1" speed="8.33" disallow="tram rail_urban rail rail_electric rail_fast ship"/>
    <edge id="-1112772641" from="7817785129" to="10181326279" priority="1" type="highway.path" numLanes="1" speed="5.56" shape="4932.90,5129.70 4929.90,5128.85 4927.21,5128.00 4920.69,5124.31 4916.19,5120.93 4914.54,5115.40 4915.22,5111.94 4915.90,5108.47" width="2.00" allow="pedestrian bicycle"/>
    <edge id="-1112772642" from="7817785129" to="7820911109" priority="1" type="highway.path" numLanes="1" speed="5.56" shape="4932.90,5129.70 4937.15,5130.06 4941.60,5128.92 4944.17,5128.26 4958.59,5131.38" width="2.00" allow="pedestrian bicycle"/>
    <edge id="-1112772643#0" from="cluster_5706349658_763545016" to="7821032227" priority="1" type="highway.path" numLanes="1" speed="5.56" shape="5084.94,5162.84 5088.86,5161.50 5122.88,5169.51" width="2.00" allow="pedestrian bicycle"/>
    <edge id="-1112772645" from="cluster_4589342440_7820911162" to="7821032245" priority="1" type="highway.path" numLanes="1" speed="5.56" shape="5215.21,5195.53 5213.00,5193.24 5193.59,5187.24" width="2.00" allow="pedestrian bicycle"/>
    <edge id="-1112772651#0" from="10181341827" to="10181341826" priority="1" type="highway.service" numLanes="1" speed="5.56" allow="pedestrian delivery bicycle"/>
    <edge id="-1112772651#1" from="10181341828" to="10181341827" priority="1" type="highway.service" numLanes="1" speed="5.56" allow="pedestrian delivery bicycle"/>
    <edge id="-1112772652" from="10181341830" to="10181341827" priority="1" type="highway.service" numLanes="1" speed="5.56" shape="4972.48,6103.25 5015.01,6091.85 5020.42,6107.11" allow="pedestrian delivery bicycle"/>
    <edge id="-1115192660#0" from="7817810995" to="763544890" priority="1" type="highway.service" numLanes="1" speed="5.56" allow="pedestrian delivery bicycle"/>
    <edge id="-1115192660#1" from="10199309615" to="7817810995" priority="1" type="highway.service" numLanes="1" speed="5.56" shape="5353.60,4506.13 5327.40,4560.05 5324.56,4571.16" allow="pedestrian delivery bicycle"/>
    <edge id="-1115192664" from="cluster_10199327820_10199327822" to="cluster_10199327819_10199327821_4405425078" priority="1" type="highway.service" numLanes="1" speed="5.56" shape="5513.86,4068.85 5515.96,4037.98 5517.08,4021.37" allow="pedestrian delivery bicycle"/>
    <edge id="-1115192665#1" from="cluster_10199327820_10199327822" to="cluster_10199327819_10199327821_4405425078" priority="1" type="highway.service" numLanes="1" speed="5.56" shape="5508.76,4070.63 5510.61,4026.08" allow="pedestrian delivery bicycle"/>
    <edge id="-1115192666" from="cluster_10199327819_10199327821_4405425078" to="4405425084" priority="1" type="highway.service" numLanes="1" speed="5.56" shape="5510.61,4026.08 5493.75,4069.48 5492.57,4077.28" allow="pedestrian delivery bicycle"/>
    <edge id="-1115192668#0" from="10199327832" to="763552723" priority="1" type="highway.service" numLanes="1" speed="5.56" allow="pedestrian delivery bicycle"/>
    <edge id="-1115192668#1" from="cluster_10199327833_10199327834_763552714_763552735" to="10199327832" priority="1" type="highway.service" numLanes="1" speed="5.56" shape="5509.80,3928.82 5490.19,3986.36" allow="pedestrian delivery bicycle"/>
    <edge id="-1115192670" from="cluster_10199327833_10199327834_763552714_763552735" to="10199327832" priority="1" type="highway.service" numLanes="1" speed="5.56" shape="5509.80,3928.82 5493.32,3922.99 5472.43,3979.87 5490.19,3986.36" allow="pedestrian delivery bicycle"/>
    <edge id="-1115192671" from="10199327842" to="cluster_10757712886_3777466844_3777466845_3777466846_#3more" priority="1" type="highway.cycleway" numLanes="1" speed="5.56" shape="5272.99,4051.59 5274.62,4052.46 5260.08,4082.64 5231.87,4140.70 5166.34,4279.35" width="2.00" allow="bicycle"/>
    <edge id="-1115192672#0" from="cluster_7528870027_7528876726" to="10199327842" priority="1" type="highway.path" numLanes="1" speed="5.56" shape="5269.87,4049.92 5272.99,4051.59" width="2.00" allow="pedestrian bicycle"/>
    <edge id="-1115192672#2" from="10199327841" to="cluster_7528870027_7528876726" priority="1" type="highway.path" numLanes="1" speed="5.56" shape="5256.53,4043.44 5261.22,4045.63" width="2.00" allow="pedestrian bicycle"/>
    <edge id="-1115192673#1" from="10202093278" to="cluster_10750730705_806018352_806018607" priority="1" type="highway.cycleway" numLanes="1" speed="5.56" shape="5056.90,4372.15 5055.49,4374.36 5055.18,4377.34 5055.56,4379.44 5060.74,4394.32 5063.53,4406.79 5063.76,4407.66" width="2.00" allow="bicycle"/>
    <edge id="-1115192673#2" from="10199327845" to="10202093278" priority="1" type="highway.cycleway" numLanes="1" speed="5.56" width="2.00" allow="bicycle"/>
    <edge id="-1115192674#0" from="806018313" to="10750730733" priority="1" type="highway.path" numLanes="1" speed="5.56" shape="5117.43,4335.55 5113.36,4333.62 5109.10,4331.58" width="2.00" allow="pedestrian bicycle"/>
    <edge id="-1115192674#1" from="806018331" to="806018313" priority="1" type="highway.path" numLanes="1" speed="5.56" width="2.00" allow="pedestrian bicycle"/>
    <edge id="-1115192675#0" from="10750730737" to="cluster_759621344_806018295" priority="1" type="highway.path" numLanes="1" speed="5.56" shape="5101.85,4330.19 5097.23,4331.26 5084.90,4336.35 5078.21,4340.05 5076.15,4342.11 5071.48,4349.78 5069.28,4353.19" width="2.00" allow="pedestrian bicycle"/>
    <edge id="-1115192675#1" from="10750730733" to="10750730737" priority="1" type="highway.path" numLanes="1" speed="5.56" shape="5109.10,4331.58 5106.00,4330.32 5101.85,4330.19" width="2.00" allow="pedestrian bicycle"/>
    <edge id="-1115192676#0" from="cluster_759621344_806018295" to="10199327845" priority="1" type="highway.path" numLanes="1" speed="5.56" shape="5060.47,4366.30 5059.50,4368.38" width="2.00" allow="pedestrian bicycle"/>
    <edge id="-1115216864" from="cluster_10199490803_10757713000_10757713001_10757713014" to="806015900" priority="1" type="highway.path" numLanes="1" speed="5.56" shape="4955.90,4770.78 4957.47,4767.07 4954.57,4754.62 4960.17,4736.50 4964.09,4724.26" width="2.00" allow="pedestrian bicycle"/>
    <edge id="-1115228754#1" from="5530924919" to="cluster_5530924917_5530924918" priority="1" type="highway.cycleway" numLanes="1" speed="5.56" shape="5610.20,3217.52 5601.00,3214.71" width="2.00" allow="bicycle"/>
    <edge id="-1115262099" from="10199869336" to="10199869331" priority="1" type="highway.track" numLanes="1" speed="5.56" shape="7856.85,3611.20 7856.30,3640.04 7848.58,3713.67 7840.81,3746.43 7802.61,3864.42 7804.03,3873.43" allow="pedestrian motorcycle moped bicycle"/>
    <edge id="-1115533814#0" from="5530846629" to="806018367" priority="1" type="highway.path" numLanes="1" speed="5.56" shape="5135.58,4395.46 5136.14,4394.54 5137.56,4390.73 5138.30,4388.24 5138.93,4384.51 5138.96,4380.73 5138.89,4375.78 5138.39,4371.75 5135.98,4365.59 5135.05,4362.82 5134.83,4359.74 5135.05,4357.98 5138.69,4344.61" width="2.00" allow="pedestrian bicycle"/>
    <edge id="-1115533814#1" from="10750730721" to="5530846629" priority="1" type="highway.path" numLanes="1" speed="5.56" width="2.00" allow="pedestrian bicycle"/>
    <edge id="-1115533815" from="806015891" to="10750730721" priority="1" type="highway.cycleway" numLanes="1" speed="5.56" shape="5097.11,4424.65 5098.70,4422.29 5100.90,4420.03 5102.95,4418.09 5105.97,4416.38 5109.39,4414.98 5114.78,4412.91 5119.12,4411.03 5123.35,4408.42 5131.35,4401.32" width="2.00" allow="bicycle"/>
    <edge id="-1115533817#0" from="5531102627" to="cluster_1630387642_1630387647_1630387654_5531102625_#6more" priority="1" type="highway.path" numLanes="1" speed="5.56" shape="5052.83,4520.36 5059.18,4508.81 5061.07,4505.29" width="2.00" allow="pedestrian bicycle"/>
    <edge id="-1115533817#1" from="5743154807" to="5531102627" priority="1" type="highway.path" numLanes="1" speed="5.56" width="2.00" allow="pedestrian bicycle"/>
    <edge id="-1115533818#0" from="cluster_1630387642_1630387647_1630387654_5531102625_#6more" to="1630387671" priority="1" type="highway.path" numLanes="1" speed="5.56" shape="5064.62,4497.97 5066.56,4493.86 5070.27,4486.03" width="2.00" allow="pedestrian bicycle"/>
    <edge id="-1115533819" from="806015900" to="cluster_10202093281_257056099" priority="1" type="highway.cycleway" numLanes="1" speed="5.56" shape="4964.09,4724.26 4966.80,4697.14" width="2.00" allow="pedestrian bicycle"/>
    <edge id="-1115533820" from="806015900" to="1630380783" priority="1" type="highway.path" numLanes="1" speed="5.56" shape="4964.09,4724.26 4954.00,4720.63 4950.67,4719.25" width="2.00" allow="pedestrian bicycle"/>
    <edge id="-1115533821#0" from="3777466852" to="806022506" priority="1" type="highway.path" numLanes="1" speed="5.56" width="2.00" allow="pedestrian bicycle"/>
    <edge id="-1115533821#1" from="5531102624" to="3777466852" priority="1" type="highway.path" numLanes="1" speed="5.56" width="2.00" allow="pedestrian bicycle"/>
    <edge id="-1115533821#2" from="cluster_1630387642_1630387647_1630387654_5531102625_#6more" to="5531102624" priority="1" type="highway.path" numLanes="1" speed="5.56" shape="5029.59,4495.80 5024.75,4506.06" width="2.00" allow="pedestrian bicycle"/>
    <edge id="-1115533821#3" from="1630387648" to="cluster_1630387642_1630387647_1630387654_5531102625_#6more" priority="1" type="highway.path" numLanes="1" speed="5.56" shape="5039.89,4472.62 5029.59,4495.80" width="2.00" allow="pedestrian bicycle"/>
    <edge id="-1115533821#4" from="cluster_10750730705_806018352_806018607" to="1630387648" priority="1" type="highway.path" numLanes="1" speed="5.56" shape="5064.61,4412.28 5064.58,4415.29 5063.82,4418.24 5052.73,4444.03 5039.89,4472.62" width="2.00" allow="pedestrian bicycle"/>
    <edge id="-1115533822" from="806022506" to="cluster_10202093283_806022366" priority="1" type="highway.cycleway" numLanes="1" speed="5.56" shape="4934.99,4712.78 4929.52,4717.15 4925.89,4718.90" width="2.00" allow="bicycle"/>
    <edge id="-1115533825#0" from="1630380784" to="cluster_10199490803_10757713000_10757713001_10757713014" priority="1" type="highway.path" numLanes="1" speed="5.56" shape="4919.41,4809.80 4921.71,4804.50 4924.89,4800.15 4928.96,4796.86 4938.17,4790.83 4949.91,4783.33 4951.91,4779.85" width="2.00" allow="pedestrian bicycle"/>