<?xml version="1.0" encoding="UTF-8"?>

<!-- generated on 2025-04-04 16:25:30 by Eclipse SUMO netconvert Version 1.19.0
<configuration xmlns:xsi="http://www.w3.org/2001/XMLSchema-instance" xsi:noNamespaceSchemaLocation="http://sumo.dlr.de/xsd/netconvertConfiguration.xsd">

    <input>
        <sumo-net-file value="les_mureaux/les_mureaux.net.xml"/>
    </input>

    <output>
        <plain-output-prefix value="les_mureaux/les_mureaux"/>
    </output>

    <processing>
        <geometry.min-radius.fix.railways value="false"/>
        <geometry.max-grade.fix value="false"/>
        <offset.disable-normalization value="true"/>
        <lefthand value="0"/>
    </processing>

    <tls_building>
        <tls.ignore-internal-junction-jam value="1"/>
    </tls_building>

    <junctions>
        <no-turnarounds value="true"/>
        <junctions.corner-detail value="5"/>
        <junctions.limit-turn-speed value="5.50"/>
        <rectangular-lane-cut value="0"/>
    </junctions>

    <pedestrian>
        <walkingareas value="0"/>
    </pedestrian>

</configuration>
-->

<nodes version="1.16" xmlns:xsi="http://www.w3.org/2001/XMLSchema-instance" xsi:noNamespaceSchemaLocation="http://sumo.dlr.de/xsd/nodes_file.xsd">
    <location netOffset="-415604.09,-5420850.19" convBoundary="0.00,0.00,11476.14,10704.58" origBoundary="1.815749,48.935914,2.003374,49.031655" projParameter="+proj=utm +zone=31 +ellps=WGS84 +datum=WGS84 +units=m +no_defs"/>

    <node id="10126707468" x="5561.23" y="5283.18" type="priority"/>
    <node id="10126707469" x="5435.17" y="5215.15" type="priority"/>
    <node id="10126707470" x="5557.18" y="5244.88" type="right_before_left"/>
    <node id="10126707471" x="5553.56" y="5243.97" type="priority"/>
    <node id="10126707472" x="5425.27" y="5222.51" type="priority"/>
    <node id="10126707481" x="5418.36" y="5211.54" type="priority"/>
    <node id="10126707485" x="5427.36" y="5205.45" type="priority"/>
    <node id="10126707490" x="5400.03" y="5354.11" type="priority"/>
    <node id="10126707493" x="5410.65" y="5152.28" type="priority"/>
    <node id="10126707495" x="5282.56" y="5214.60" type="right_before_left"/>
    <node id="10126707504" x="5346.02" y="5219.96" type="priority"/>
    <node id="10126707509" x="5423.33" y="5233.46" type="right_before_left"/>
    <node id="10126707510" x="5341.87" y="5208.72" type="priority"/>
    <node id="10126707513" x="5549.68" y="5188.60" type="priority"/>
    <node id="10126707522" x="5608.05" y="5257.53" type="right_before_left"/>
    <node id="10126707540" x="5322.26" y="5659.10" type="dead_end"/>
    <node id="10126707541" x="5322.77" y="5656.99" type="priority"/>
    <node id="10126707542" x="5324.07" y="5644.43" type="priority"/>
    <node id="10126707543" x="5382.48" y="5666.29" type="dead_end"/>
    <node id="10126707544" x="5382.73" y="5664.06" type="priority"/>
    <node id="10126707545" x="5384.98" y="5651.17" type="priority"/>
    <node id="10126707546" x="5409.73" y="5669.52" type="dead_end"/>
    <node id="10126707547" x="5409.93" y="5667.39" type="priority"/>
    <node id="10126707548" x="5411.46" y="5654.52" type="priority"/>
    <node id="10126707549" x="5554.74" y="5688.19" type="dead_end"/>
    <node id="10126707550" x="5555.09" y="5684.90" type="priority"/>
    <node id="10126707551" x="5557.32" y="5670.61" type="priority"/>
    <node id="10126707552" x="5582.97" y="5691.49" type="dead_end"/>
    <node id="10126707553" x="5583.42" y="5688.22" type="priority"/>
    <node id="10126707554" x="5585.63" y="5674.13" type="priority"/>
    <node id="10126707555" x="5655.17" y="5699.87" type="dead_end"/>
    <node id="10126707556" x="5655.48" y="5696.73" type="priority"/>
    <node id="10126707557" x="5657.56" y="5682.62" type="priority"/>
    <node id="10126707558" x="5686.17" y="5703.55" type="dead_end"/>
    <node id="10126707559" x="5686.71" y="5700.39" type="priority"/>
    <node id="10126707560" x="5688.33" y="5686.32" type="priority"/>
    <node id="10126707561" x="5848.38" y="5719.26" type="priority"/>
    <node id="10130114493" x="4417.61" y="8543.20" type="priority"/>
    <node id="10130114494" x="4488.43" y="8519.93" type="priority"/>
    <node id="10130114496" x="4402.52" y="8475.62" type="priority"/>
    <node id="10132821242" x="4838.43" y="6455.42" type="priority"/>
    <node id="10181326279" x="4915.90" y="5108.47" type="priority"/>
    <node id="10181326282" x="4921.12" y="5109.87" type="priority"/>
    <node id="10181326301" x="4940.42" y="5114.31" type="priority"/>
    <node id="10181326303" x="4931.56" y="5121.87" type="priority"/>
    <node id="10181326304" x="4937.85" y="5105.21" type="priority"/>
    <node id="10181341818" x="4781.25" y="5322.11" type="priority"/>
    <node id="10181341819" x="4783.91" y="5305.64" type="priority"/>
    <node id="10181341821" x="4783.93" y="5371.22" type="priority"/>
    <node id="10181341822" x="4780.99" y="5389.32" type="priority"/>
    <node id="10181341826" x="4976.63" y="6120.71" type="right_before_left"/>
    <node id="10181341827" x="5020.42" y="6107.11" type="right_before_left"/>
    <node id="10181341828" x="5036.95" y="6156.68" type="priority"/>
    <node id="10181341830" x="4972.48" y="6103.25" type="right_before_left"/>
    <node id="10181341833" x="4970.70" y="5890.63" type="right_before_left"/>
    <node id="10181341838" x="4957.90" y="5761.21" type="priority"/>
    <node id="10185500664" x="5282.20" y="5212.19" type="dead_end"/>
    <node id="10185500677" x="5410.79" y="5210.02" type="right_before_left"/>
    <node id="10185500678" x="5338.88" y="5202.99" type="dead_end"/>
    <node id="10199309588" x="5004.29" y="5130.76" type="priority"/>
    <node id="10199309590" x="5001.63" y="5142.04" type="priority"/>
    <node id="10199309592" x="5238.41" y="5102.31" type="priority"/>
    <node id="10199309596" x="5279.59" y="4921.79" type="priority"/>
    <node id="10199309600" x="5431.38" y="4659.41" type="dead_end"/>
    <node id="10199309601" x="5385.70" y="4617.56" type="dead_end"/>
    <node id="10199309602" x="5395.31" y="4596.88" type="dead_end"/>
    <node id="10199309603" x="5373.71" y="4586.37" type="dead_end"/>
    <node id="10199309604" x="5330.26" y="4598.04" type="dead_end"/>
    <node id="10199309605" x="5337.39" y="4574.58" type="dead_end"/>
    <node id="10199309606" x="5311.59" y="4569.13" type="dead_end"/>
    <node id="10199309609" x="5223.05" y="4575.75" type="dead_end"/>
    <node id="10199309612" x="5287.48" y="4565.46" type="dead_end"/>
    <node id="10199309615" x="5353.60" y="4506.13" type="priority"/>
    <node id="10199327832" x="5490.19" y="3986.36" type="right_before_left"/>
    <node id="10199327841" x="5256.53" y="4043.44" type="priority"/>
    <node id="10199327842" x="5272.99" y="4051.59" type="priority"/>
    <node id="10199327845" x="5059.50" y="4368.38" type="priority"/>
    <node id="10199490795" x="5002.21" y="4626.16" type="priority"/>
    <node id="10199490798" x="4995.69" y="4639.62" type="right_before_left"/>
    <node id="10199490800" x="4919.70" y="4714.86" type="dead_end"/>
    <node id="10199490801" x="4925.68" y="4711.45" type="dead_end"/>
    <node id="10199561487" x="5563.08" y="2428.30" type="priority"/>
    <node id="10199869331" x="7804.03" y="3873.43" type="priority"/>
    <node id="10199869336" x="7856.85" y="3611.20" type="priority"/>
    <node id="10202093278" x="5056.90" y="4372.15" type="priority"/>
    <node id="10202202496" x="4758.99" y="5393.13" type="priority"/>
    <node id="10202202499" x="4781.47" y="5540.66" type="priority"/>
    <node id="10202320696" x="6324.21" y="5707.02" type="priority"/>
    <node id="10202320697" x="6306.70" y="5737.38" type="priority"/>
    <node id="10202320698" x="6312.19" y="5706.41" type="priority"/>
    <node id="10202320703" x="6629.26" y="5501.01" type="priority"/>
    <node id="10202320705" x="6628.93" y="5493.25" type="priority"/>
    <node id="10202320708" x="6648.25" y="5486.99" type="priority"/>
    <node id="10202320711" x="6652.90" y="5497.90" type="priority"/>
    <node id="10202320713" x="6649.43" y="5505.22" type="priority"/>
    <node id="10202320716" x="6640.73" y="5484.41" type="priority"/>
    <node id="10202321019" x="6638.03" y="5508.56" type="priority"/>
    <node id="10202321022" x="6328.41" y="5699.02" type="priority"/>
    <node id="10202321031" x="6618.29" y="5610.26" type="priority"/>
    <node id="10202321034" x="6594.18" y="5651.20" type="priority"/>
    <node id="10202321037" x="6579.66" y="5306.24" type="priority"/>
    <node id="10202321046" x="6675.70" y="5466.79" type="right_before_left"/>
    <node id="10202321052" x="6686.08" y="5372.31" type="priority"/>
    <node id="10204860784" x="4946.80" y="6210.90" type="right_before_left"/>
    <node id="10204860786" x="4950.95" y="6172.98" type="priority"/>
    <node id="10204860789" x="4912.37" y="6139.52" type="priority"/>
    <node id="10224475187" x="3572.96" y="5046.95" type="priority"/>
    <node id="10224475188" x="3532.71" y="5048.65" type="priority"/>
    <node id="10224475189" x="3520.70" y="5007.78" type="priority"/>
    <node id="10224475194" x="3548.27" y="5037.05" type="priority"/>
    <node id="10224475195" x="3537.82" y="5029.33" type="priority"/>
    <node id="10224475196" x="3567.91" y="5028.92" type="priority"/>
    <node id="10224475197" x="3556.93" y="5037.12" type="priority"/>
    <node id="10224475198" x="3535.20" y="5019.71" type="priority"/>
    <node id="10224475199" x="3540.07" y="5008.02" type="priority"/>
    <node id="10224475200" x="3529.82" y="5008.14" type="priority"/>
    <node id="10224475201" x="3527.32" y="5013.17" type="priority"/>
    <node id="10224475203" x="3565.55" y="5043.70" type="priority"/>
    <node id="10224475204" x="3571.52" y="5039.09" type="priority"/>
    <node id="10224499217" x="3610.77" y="5029.20" type="priority"/>
    <node id="10224499221" x="3477.27" y="5126.83" type="priority"/>
    <node id="10224499226" x="3384.87" y="5203.15" type="priority"/>
    <node id="10224499227" x="3422.90" y="5194.39" type="priority"/>
    <node id="10224499229" x="3400.84" y="5266.46" type="priority"/>
    <node id="10224499236" x="3316.85" y="5371.31" type="priority"/>
    <node id="10224499241" x="3348.28" y="5376.58" type="priority"/>
    <node id="10224499242" x="3352.62" y="5381.02" type="priority"/>
    <node id="10224499243" x="3354.67" y="5423.07" type="priority"/>
    <node id="10224499244" x="3347.54" y="5427.46" type="priority"/>
    <node id="10604981730" x="6073.71" y="6589.34" type="priority"/>
    <node id="10604981739" x="5890.94" y="6568.16" type="priority"/>
    <node id="10605019590" x="5927.46" y="6466.96" type="priority"/>
    <node id="10605019591" x="5929.50" y="6437.40" type="priority"/>
    <node id="10605021826" x="3809.65" y="6692.30" type="priority"/>
    <node id="10605021827" x="3823.22" y="6637.86" type="priority"/>
    <node id="10605021828" x="3920.12" y="6680.91" type="priority"/>
    <node id="10605021829" x="3900.38" y="6672.13" type="priority"/>
    <node id="1063810168" x="3953.20" y="8390.50" type="priority"/>
    <node id="1063810182" x="3978.97" y="8410.59" type="priority"/>
    <node id="1063810249" x="3984.53" y="8343.21" type="priority"/>
    <node id="1063810267" x="3960.57" y="8421.18" type="priority"/>
    <node id="1063810284" x="3993.77" y="8371.19" type="priority"/>
    <node id="1063810362" x="3941.06" y="8335.17" type="priority"/>
    <node id="1063810383" x="3993.73" y="8413.84" type="priority"/>
    <node id="1063810415" x="3952.14" y="8374.57" type="priority"/>
    <node id="1063810464" x="3975.97" y="8424.47" type="priority"/>
    <node id="1063810495" x="4011.39" y="8386.55" type="priority"/>
    <node id="1063810510" x="3963.35" y="8407.17" type="priority"/>
    <node id="1063810578" x="3956.73" y="8338.00" type="priority"/>
    <node id="1063810594" x="4009.68" y="8400.11" type="priority"/>
    <node id="1063810644" x="3978.68" y="8368.17" type="priority"/>
    <node id="1063810751" x="3991.12" y="8427.37" type="priority"/>
    <node id="10647038232" x="6652.44" y="8609.29" type="priority"/>
    <node id="1065597464" x="2590.10" y="6659.01" type="priority"/>
    <node id="10673980880" x="5555.08" y="4760.69" type="priority"/>
    <node id="10679397624" x="5350.44" y="3640.24" type="right_before_left"/>
    <node id="10679397627" x="5323.34" y="3635.11" type="priority"/>
    <node id="10679397637" x="5209.61" y="3755.36" type="right_before_left"/>
    <node id="10679397641" x="5316.82" y="3713.62" type="right_before_left"/>
    <node id="10679397642" x="5225.57" y="3792.55" type="right_before_left"/>
    <node id="10679397643" x="5319.97" y="3791.48" type="right_before_left"/>
    <node id="10679397654" x="5330.56" y="3864.46" type="priority"/>
    <node id="10679397671" x="5311.80" y="3662.00" type="right_before_left"/>
    <node id="10679397675" x="5331.44" y="3679.34" type="right_before_left"/>
    <node id="10679397679" x="5300.09" y="3753.00" type="right_before_left"/>
    <node id="10679397693" x="5316.19" y="3849.68" type="priority"/>
    <node id="10679397695" x="5333.87" y="3857.81" type="priority"/>
    <node id="10696044051" x="5273.61" y="4694.61" type="priority"/>
    <node id="10696044055" x="5219.15" y="4690.04" type="priority"/>
    <node id="10722354464" x="4538.91" y="7693.70" type="priority"/>
    <node id="10722354482" x="4442.41" y="7698.31" type="priority"/>
    <node id="10722354484" x="4449.66" y="7676.64" type="priority"/>
    <node id="10722354530" x="4527.69" y="7831.37" type="right_before_left"/>
    <node id="10733606080" x="4638.68" y="5442.39" type="priority"/>
    <node id="10733606081" x="5112.97" y="5713.62" type="priority"/>
    <node id="10733606082" x="5203.50" y="5682.38" type="priority"/>
    <node id="10733606085" x="5113.47" y="5686.02" type="right_before_left"/>
    <node id="10733606090" x="4873.13" y="5294.91" type="priority"/>
    <node id="10733606093" x="4508.64" y="5146.00" type="priority"/>
    <node id="10733606094" x="4557.24" y="5171.92" type="priority"/>
    <node id="10733606095" x="4651.26" y="5017.22" type="priority" fringe="inner">
        <param key="buffer_stop" value="true"/>
    </node>
    <node id="10733606096" x="4631.15" y="5030.09" type="right_before_left"/>
    <node id="10733606098" x="4617.26" y="5007.44" type="priority"/>
    <node id="10733606099" x="4670.16" y="5006.81" type="priority"/>
    <node id="10733610505" x="4738.20" y="5040.53" type="right_before_left"/>
    <node id="10733610513" x="4576.99" y="4969.81" type="right_before_left"/>
    <node id="10733610514" x="4670.31" y="4983.11" type="priority"/>
    <node id="10733610518" x="4626.34" y="4969.24" type="right_before_left"/>
    <node id="10733610519" x="4611.90" y="4947.81" type="right_before_left"/>
    <node id="10733610520" x="4553.82" y="4984.43" type="priority"/>
    <node id="10733610521" x="4702.84" y="4760.07" type="priority"/>
    <node id="10733610522" x="4701.36" y="4780.94" type="right_before_left"/>
    <node id="10733610523" x="4714.48" y="4797.12" type="right_before_left"/>
    <node id="10733610524" x="4711.80" y="4826.81" type="priority"/>
    <node id="10733610527" x="4709.91" y="4847.71" type="priority"/>
    <node id="10733610528" x="4719.68" y="4878.28" type="priority"/>
    <node id="10733610531" x="4719.14" y="4745.68" type="priority"/>
    <node id="10733610532" x="4708.88" y="4674.94" type="priority"/>
    <node id="10733610534" x="4639.41" y="4662.37" type="priority"/>
    <node id="10733610537" x="4681.68" y="4660.45" type="priority"/>
    <node id="10733610538" x="4690.67" y="4574.46" type="dead_end"/>
    <node id="10733610540" x="4758.59" y="4582.13" type="priority"/>
    <node id="10733610541" x="4672.62" y="4361.59" type="priority"/>
    <node id="10733610542" x="4640.93" y="4308.31" type="priority"/>
    <node id="10733610543" x="4664.92" y="4433.37" type="priority"/>
    <node id="10733610544" x="4665.84" y="4425.34" type="priority"/>
    <node id="10733610546" x="4649.95" y="4370.68" type="priority"/>
    <node id="10734880979" x="5260.46" y="7168.49" type="priority"/>
    <node id="10734880980" x="5291.28" y="7170.64" type="dead_end"/>
    <node id="10734880981" x="5289.79" y="7186.21" type="dead_end"/>
    <node id="10734880983" x="5279.28" y="7119.92" type="right_before_left"/>
    <node id="10734880984" x="4418.61" y="6172.89" type="priority"/>
    <node id="10734880986" x="4317.20" y="6159.27" type="priority"/>
    <node id="10734880988" x="3907.52" y="6167.22" type="priority"/>
    <node id="10734880989" x="3844.76" y="6112.39" type="priority"/>
    <node id="10734880990" x="3867.82" y="6053.67" type="priority"/>
    <node id="10734880991" x="3837.14" y="6195.48" type="priority"/>
    <node id="10734880992" x="3821.54" y="6236.20" type="priority"/>
    <node id="10734880993" x="3802.20" y="6175.05" type="priority"/>
    <node id="10734880994" x="3789.20" y="6211.13" type="priority"/>
    <node id="10734880995" x="3617.12" y="5915.58" type="priority"/>
    <node id="10734881004" x="3629.50" y="5952.81" type="priority"/>
    <node id="10734994609" x="3573.79" y="5980.73" type="right_before_left"/>
    <node id="10734994610" x="3577.37" y="5970.98" type="priority"/>
    <node id="10734994611" x="3556.87" y="6026.90" type="priority"/>
    <node id="10734994612" x="3616.25" y="5807.63" type="priority"/>
    <node id="10734994614" x="3533.48" y="6017.75" type="priority"/>
    <node id="10734994615" x="4720.80" y="5971.78" type="priority"/>
    <node id="10734994616" x="4673.60" y="5965.51" type="right_before_left"/>
    <node id="10734994617" x="4667.34" y="6007.47" type="priority"/>
    <node id="10734994618" x="4677.24" y="5941.07" type="priority"/>
    <node id="10734994619" x="4331.94" y="5966.80" type="dead_end"/>
    <node id="10734994620" x="4268.78" y="5955.48" type="right_before_left"/>
    <node id="10734994621" x="4275.71" y="5797.07" type="priority"/>
    <node id="10734994622" x="4282.99" y="5691.99" type="priority"/>
    <node id="10734994623" x="4536.15" y="5829.85" type="right_before_left"/>
    <node id="10734994630" x="4560.03" y="5750.80" type="priority"/>
    <node id="10734994638" x="4563.39" y="5007.30" type="priority"/>
    <node id="10734994644" x="4560.49" y="5187.42" type="priority"/>
    <node id="10734994645" x="4631.23" y="5187.30" type="priority"/>
    <node id="10734994646" x="4574.19" y="5178.73" type="priority"/>
    <node id="10734994647" x="4630.09" y="5210.12" type="priority"/>
    <node id="10734994648" x="4571.98" y="5201.72" type="priority"/>
    <node id="10735134383" x="5750.59" y="8118.60" type="priority"/>
    <node id="10735134385" x="5732.56" y="8128.00" type="priority"/>
    <node id="10735134389" x="5719.54" y="8143.11" type="priority"/>
    <node id="10735134390" x="5860.76" y="8217.19" type="priority"/>
    <node id="10735134394" x="5919.45" y="8176.98" type="priority"/>
    <node id="10735134396" x="3871.90" y="8368.25" type="priority"/>
    <node id="10735134398" x="3895.47" y="8439.93" type="priority"/>
    <node id="10735134399" x="4419.41" y="8107.89" type="priority"/>
    <node id="10735134400" x="4428.11" y="8180.92" type="priority"/>
    <node id="10735134401" x="4421.57" y="8142.58" type="priority"/>
    <node id="10735164113" x="4929.74" y="7495.19" type="priority"/>
    <node id="10735164119" x="4648.09" y="7446.22" type="priority"/>
    <node id="10735164120" x="4610.83" y="7439.78" type="priority"/>
    <node id="10735164126" x="4581.71" y="7381.95" type="priority"/>
    <node id="10748860647" x="4711.74" y="4949.51" type="priority"/>
    <node id="10748860648" x="4717.74" y="4967.38" type="priority"/>
    <node id="10748860649" x="4742.77" y="4996.74" type="priority"/>
    <node id="10750730721" x="5131.35" y="4401.32" type="right_before_left"/>
    <node id="10750730733" x="5109.10" y="4331.58" type="priority"/>
    <node id="10750730737" x="5101.85" y="4330.19" type="right_before_left"/>
    <node id="10757695225" x="4837.11" y="5089.98" type="priority"/>
    <node id="10757712806" x="5585.53" y="3318.52" type="priority"/>
    <node id="10757712832" x="5582.81" y="3338.71" type="priority"/>
    <node id="10757712849" x="5560.63" y="3332.62" type="priority"/>
    <node id="10757712889" x="5097.99" y="4354.35" type="priority"/>
    <node id="10757712897" x="5124.39" y="4365.34" type="priority"/>
    <node id="10757712925" x="5080.49" y="4393.55" type="priority"/>
    <node id="10757712928" x="5106.42" y="4405.73" type="priority"/>
    <node id="10757712940" x="5091.94" y="4356.25" type="priority"/>
    <node id="10757712951" x="5076.77" y="4382.34" type="priority"/>
    <node id="10757712978" x="4899.69" y="4762.15" type="priority"/>
    <node id="10757712980" x="4911.67" y="4741.13" type="priority"/>
    <node id="10757712991" x="4902.02" y="4772.25" type="priority"/>
    <node id="10757712995" x="4932.65" y="4784.25" type="priority"/>
    <node id="10757713012" x="4947.42" y="4766.77" type="priority"/>
    <node id="10757713046" x="4938.31" y="4781.11" type="priority"/>
    <node id="10757713060" x="4836.10" y="5078.53" type="priority"/>
    <node id="10757713064" x="4832.37" y="5074.11" type="priority"/>
    <node id="10757713069" x="4815.51" y="5073.34" type="priority"/>
    <node id="10757713095" x="4829.83" y="5098.32" type="priority"/>
    <node id="10757713127" x="4840.73" y="5769.75" type="priority"/>
    <node id="10757713132" x="4822.91" y="5775.51" type="priority"/>
    <node id="10757713138" x="4846.86" y="5777.93" type="priority"/>
    <node id="10757713172" x="4827.08" y="5791.11" type="priority"/>
    <node id="10757713182" x="4845.58" y="5786.96" type="priority"/>
    <node id="10757713186" x="4946.30" y="6179.56" type="priority"/>
    <node id="10757713212" x="4940.39" y="6168.47" type="priority"/>
    <node id="10757713228" x="4921.96" y="6184.92" type="priority"/>
    <node id="10757713231" x="4925.18" y="6189.04" type="priority"/>
    <node id="10757713234" x="4943.83" y="6186.88" type="priority"/>
    <node id="10764383751" x="4640.61" y="5129.33" type="priority"/>
    <node id="10764383754" x="4617.09" y="5063.90" type="right_before_left"/>
    <node id="10764383755" x="4352.72" y="5870.03" type="priority"/>
    <node id="10764383762" x="4450.18" y="5925.37" type="priority"/>
    <node id="10764383766" x="5401.43" y="6392.74" type="right_before_left"/>
    <node id="10764383767" x="5399.22" y="6353.85" type="right_before_left"/>
    <node id="10764383768" x="5342.25" y="6363.43" type="priority"/>
    <node id="10764383769" x="5239.10" y="6321.11" type="priority"/>
    <node id="10764383771" x="5230.38" y="6287.28" type="priority"/>
    <node id="10764383782" x="5148.64" y="6321.32" type="priority"/>
    <node id="10764383787" x="5074.41" y="6337.25" type="priority"/>
    <node id="10764383788" x="5067.84" y="6296.84" type="right_before_left"/>
    <node id="1077171002-AddedOffRampNode" x="4690.19" y="8793.96" type="priority"/>
    <node id="10808091015" x="6475.08" y="6544.31" type="priority"/>
    <node id="10808091024" x="6344.28" y="6622.82" type="priority"/>
    <node id="10808091027" x="6339.53" y="6625.36" type="priority"/>
    <node id="10808091039" x="6515.01" y="6501.53" type="priority"/>
    <node id="10808091051" x="6273.15" y="6658.82" type="priority"/>
    <node id="10808091060" x="4936.32" y="6917.45" type="priority"/>
    <node id="10808091075" x="5651.18" y="6959.45" type="priority"/>
    <node id="10808091093" x="5593.47" y="6997.44" type="priority"/>
    <node id="10808091099" x="5600.73" y="6994.63" type="priority"/>
    <node id="10808093753" x="4900.81" y="6852.15" type="priority"/>
    <node id="10808093754" x="4924.12" y="6835.33" type="priority"/>
    <node id="10808093797" x="4922.79" y="6838.07" type="priority"/>
    <node id="10808093806" x="4903.11" y="6821.34" type="priority"/>
    <node id="10808093825" x="4906.76" y="6850.66" type="priority"/>
    <node id="10808093833" x="4776.30" y="4457.40" type="priority"/>
    <node id="10808093855" x="4752.67" y="4446.27" type="priority"/>
    <node id="10808093912" x="4919.69" y="6456.69" type="right_before_left"/>
    <node id="10808093914" x="4926.37" y="6455.61" type="priority"/>
    <node id="10808093916" x="4928.66" y="6454.21" type="right_before_left"/>
    <node id="10808093919" x="4926.46" y="6452.27" type="priority"/>
    <node id="10808093925" x="4926.32" y="6456.81" type="priority"/>
    <node id="10812643295" x="3336.50" y="5381.96" type="priority"/>
    <node id="10812679761" x="3330.84" y="5381.30" type="priority"/>
    <node id="10812679778" x="3350.50" y="5405.53" type="priority"/>
    <node id="10812679783" x="3350.05" y="5394.65" type="priority"/>
    <node id="10812679826" x="3313.17" y="5393.59" type="priority"/>
    <node id="10825146927" x="6987.27" y="6262.11" type="priority"/>
    <node id="10825146946" x="7034.89" y="6238.74" type="priority"/>
    <node id="10825146981" x="7022.50" y="6259.33" type="priority"/>
    <node id="10825146985" x="7026.57" y="6251.08" type="priority"/>
    <node id="10825146995" x="7015.23" y="6231.99" type="priority"/>
    <node id="10825146998" x="7007.85" y="6231.26" type="priority"/>
    <node id="10825161206" x="6993.97" y="6242.28" type="priority"/>
    <node id="10825161214" x="6848.17" y="6309.96" type="priority"/>
    <node id="10825161222" x="7729.33" y="5845.51" type="priority"/>
    <node id="10825161227" x="7578.97" y="5937.75" type="right_before_left"/>
    <node id="10825161271" x="7579.14" y="5938.92" type="right_before_left"/>
    <node id="10825161295" x="7935.18" y="5710.82" type="dead_end"/>
    <node id="10825161296" x="7964.40" y="5715.84" type="priority"/>
    <node id="10825161299" x="7949.12" y="5697.75" type="priority"/>
    <node id="10825161309" x="7963.76" y="5693.85" type="priority"/>
    <node id="10825161347" x="7970.63" y="5708.41" type="priority"/>
    <node id="10825161369" x="8807.76" y="5347.72" type="dead_end"/>
    <node id="10825161411" x="8003.74" y="5672.92" type="priority"/>
    <node id="10840560770" x="7963.36" y="6183.05" type="priority"/>
    <node id="10840560793" x="8000.25" y="6182.64" type="priority"/>
    <node id="10840560796" x="8009.19" y="6182.70" type="priority"/>
    <node id="10846728589" x="4307.42" y="8186.39" type="right_before_left"/>
    <node id="10846753709" x="4442.28" y="7688.18" type="priority"/>
    <node id="10846753710" x="4445.66" y="7688.48" type="priority"/>
    <node id="10846753717" x="4434.02" y="7761.86" type="priority"/>
    <node id="10846771712" x="4607.99" y="8543.78" type="priority"/>
    <node id="10846771716" x="4587.62" y="8566.25" type="priority"/>
    <node id="10846771718" x="4628.15" y="8571.64" type="priority"/>
    <node id="10846771730" x="4595.03" y="8560.25" type="right_before_left"/>
    <node id="10846771741" x="4200.09" y="8379.56" type="priority"/>
    <node id="10846771742" x="4206.15" y="8383.65" type="priority"/>
    <node id="10846771743" x="4234.51" y="8403.61" type="priority"/>
    <node id="10846771746" x="4288.05" y="8360.19" type="priority"/>
    <node id="10894984717" x="4870.63" y="8263.88" type="priority"/>
    <node id="10894984742" x="5132.18" y="8155.81" type="priority"/>
    <node id="10894984770" x="4561.88" y="8258.52" type="priority"/>
    <node id="10894984811" x="4734.87" y="8389.64" type="priority"/>
    <node id="10894984816" x="4743.91" y="8392.17" type="priority"/>
    <node id="10894984819" x="4745.54" y="8395.50" type="priority"/>
    <node id="10894984820" x="4745.72" y="8397.99" type="priority"/>
    <node id="10894984827" x="4729.79" y="8399.73" type="priority"/>
    <node id="10894984828" x="4737.32" y="8389.18" type="priority"/>
    <node id="10894984832" x="4740.87" y="8404.75" type="priority"/>
    <node id="10894984833" x="4735.29" y="8405.12" type="priority"/>
    <node id="10894984838" x="5330.14" y="8660.75" type="priority"/>
    <node id="10894984839" x="5352.65" y="8674.84" type="priority"/>
    <node id="10894984841" x="5311.94" y="8680.88" type="priority"/>
    <node id="10894984869" x="5314.80" y="8672.89" type="priority"/>
    <node id="10894984890" x="5327.49" y="8663.77" type="priority"/>
    <node id="10894984897" x="5331.81" y="8681.96" type="priority"/>
    <node id="10894984900" x="5342.76" y="8683.96" type="priority"/>
    <node id="10894984911" x="5331.59" y="8659.54" type="priority"/>
    <node id="10894984919" x="5351.76" y="8665.01" type="priority"/>
    <node id="10898994274" x="7007.46" y="6229.30" type="priority"/>
    <node id="10903813205" x="3750.69" y="8018.96" type="priority"/>
    <node id="10903813206" x="3753.76" y="8017.95" type="priority"/>
    <node id="10903813207" x="3745.68" y="8004.10" type="priority"/>
    <node id="10903813212" x="3753.27" y="8021.48" type="priority"/>
    <node id="10903813262" x="3449.03" y="7865.24" type="priority"/>
    <node id="10903813268" x="3455.80" y="7853.56" type="priority"/>
    <node id="10903813275" x="3461.89" y="7866.53" type="priority"/>
    <node id="10970861290" x="4419.50" y="7644.63" type="right_before_left"/>
    <node id="10971672005" x="5083.23" y="2372.28" type="priority"/>
    <node id="10971672008" x="5163.69" y="2340.19" type="right_before_left"/>
    <node id="10971672011" x="5150.26" y="2363.35" type="dead_end"/>
    <node id="10971672029" x="5349.80" y="2364.41" type="dead_end"/>
    <node id="10971672031" x="5410.34" y="2341.74" type="priority"/>
    <node id="10971672032" x="5401.55" y="2390.24" type="priority"/>
    <node id="10992333349" x="4572.12" y="8624.05" type="priority"/>
    <node id="10992333354" x="4584.54" y="8601.22" type="priority"/>
    <node id="10992333358" x="4608.74" y="8602.29" type="priority"/>
    <node id="10992333359" x="4582.29" y="8644.28" type="priority"/>
    <node id="10992333360" x="4602.17" y="8654.69" type="priority"/>
    <node id="10992333373" x="4625.63" y="8640.56" type="priority"/>