<?xml version="1.0" encoding="UTF-8"?>

<!-- generated on 2025-04-04 16:25:30 by Eclipse SUMO netconvert Version 1.19.0
<configuration xmlns:xsi="http://www.w3.org/2001/XMLSchema-instance" xsi:noNamespaceSchemaLocation="http://sumo.dlr.de/xsd/netconvertConfiguration.xsd">

    <input>
        <sumo-net-file value="les_mureaux/les_mureaux.net.xml"/>
    </input>

    <output>
        <plain-output-prefix value="les_mureaux/les_mureaux"/>
    </output>

    <processing>
        <geometry.min-radius.fix.railways value="false"/>
        <geometry.max-grade.fix value="false"/>
        <offset.disable-normalization value="true"/>
        <lefthand value="0"/>
    </processing>

    <tls_building>
        <tls.ignore-internal-junction-jam value="1"/>
    </tls_building>

    <junctions>
        <no-turnarounds value="true"/>
        <junctions.corner-detail value="5"/>
        <junctions.limit-turn-speed value="5.50"/>
        <rectangular-lane-cut value="0"/>
    </junctions>

    <pedestrian>
        <walkingareas value="0"/>
    </pedestrian>

</configuration>
-->

<tlLogics version="1.16" xmlns:xsi="http://www.w3.org/2001/XMLSchema-instance" xsi:noNamespaceSchemaLocation="http://sumo.dlr.de/xsd/tllogic_file.xsd">
    <tlLogic id="5492164149" type="static" programID="0" offset="0">
        <phase duration="82" state="GG"/>
        <phase duration="3"  state="yy"/>
        <phase duration="5"  state="rr"/>
    </tlLogic>
    <tlLogic id="5492164150" type="static" programID="0" offset="0">
        <phase duration="82" state="GG"/>
        <phase duration="3"  state="yy"/>
        <phase duration="5"  state="rr"/>
    </tlLogic>
    <tlLogic id="5492164151" type="static" programID="0" offset="0">
        <phase duration="82" state="GG"/>
        <phase duration="3"  state="yy"/>
        <phase duration="5"  state="rr"/>
    </tlLogic>
    <tlLogic id="5492164152" type="static" programID="0" offset="0">
        <phase duration="82" state="GG"/>
        <phase duration="3"  state="yy"/>
        <phase duration="5"  state="rr"/>
    </tlLogic>
    <tlLogic id="5492164153" type="static" programID="0" offset="0">
        <phase duration="82" state="GG"/>
        <phase duration="3"  state="yy"/>
        <phase duration="5"  state="rr"/>
    </tlLogic>
    <tlLogic id="5492164154" type="static" programID="0" offset="0">
        <phase duration="82" state="G"/>
        <phase duration="3"  state="y"/>
        <phase duration="5"  state="r"/>
    </tlLogic>
    <tlLogic id="5492164155" type="static" programID="0" offset="0">
        <phase duration="82" state="G"/>
        <phase duration="3"  state="y"/>
        <phase duration="5"  state="r"/>
    </tlLogic>
    <tlLogic id="5492164156" type="static" programID="0" offset="0">
        <phase duration="82" state="G"/>
        <phase duration="3"  state="y"/>
        <phase duration="5"  state="r"/>
    </tlLogic>
    <tlLogic id="5492164157" type="static" programID="0" offset="0">
        <phase duration="82" state="G"/>
        <phase duration="3"  state="y"/>
        <phase duration="5"  state="r"/>
    </tlLogic>
    <tlLogic id="5706746022" type="static" programID="0" offset="0">
        <phase duration="82" state="G"/>
        <phase duration="3"  state="y"/>
        <phase duration="5"  state="r"/>
    </tlLogic>
    <tlLogic id="5706746023" type="static" programID="0" offset="0">
        <phase duration="82" state="G"/>
        <phase duration="3"  state="y"/>
        <phase duration="5"  state="r"/>
    </tlLogic>
    <tlLogic id="5706746024" type="static" programID="0" offset="0">
        <phase duration="82" state="G"/>
        <phase duration="3"  state="y"/>
        <phase duration="5"  state="r"/>
    </tlLogic>
    <tlLogic id="6391843509" type="static" programID="0" offset="0">
        <phase duration="82" state="G"/>
        <phase duration="3"  state="y"/>
        <phase duration="5"  state="r"/>
    </tlLogic>
    <tlLogic id="6391843510" type="static" programID="0" offset="0">
        <phase duration="82" state="G"/>
        <phase duration="3"  state="y"/>
        <phase duration="5"  state="r"/>
    </tlLogic>
    <tlLogic id="6391843511" type="static" programID="0" offset="0">
        <phase duration="82" state="G"/>
        <phase duration="3"  state="y"/>
        <phase duration="5"  state="r"/>
    </tlLogic>
    <tlLogic id="6391843512" type="static" programID="0" offset="0">
        <phase duration="82" state="GG"/>
        <phase duration="3"  state="yy"/>
        <phase duration="5"  state="rr"/>
    </tlLogic>
    <tlLogic id="6391843513" type="static" programID="0" offset="0">
        <phase duration="82" state="GG"/>
        <phase duration="3"  state="yy"/>
        <phase duration="5"  state="rr"/>
    </tlLogic>
    <tlLogic id="6391904224" type="static" programID="0" offset="0">
        <phase duration="82" state="GG"/>
        <phase duration="3"  state="yy"/>
        <phase duration="5"  state="rr"/>
    </tlLogic>
    <tlLogic id="6391904225" type="static" programID="0" offset="0">
        <phase duration="82" state="GG"/>
        <phase duration="3"  state="yy"/>
        <phase duration="5"  state="rr"/>
    </tlLogic>
    <tlLogic id="758722690" type="static" programID="0" offset="0">
        <phase duration="82" state="GG"/>
        <phase duration="3"  state="yy"/>
        <phase duration="5"  state="rr"/>
    </tlLogic>
    <tlLogic id="GS_619155672" type="static" programID="0" offset="0">
        <phase duration="24" state="rrrGggrrrGGg"/>
        <phase duration="3"  state="rrryggrrryyy"/>
        <phase duration="6"  state="rrrGGGrrrrrr"/>
        <phase duration="3"  state="rrryyyrrrrrr"/>
        <phase duration="24" state="rrrrrrGGgGrr"/>
        <phase duration="3"  state="rrrrrryyyyrr"/>
        <phase duration="24" state="GGGrrrrrrrrr"/>
        <phase duration="3"  state="yyyrrrrrrrrr"/>
    </tlLogic>
    <tlLogic id="GS_cluster_257387640_538415378" type="static" programID="0" offset="0">
        <phase duration="24" state="GGGgrrrGggrrr"/>
        <phase duration="3"  state="yyyyrrryggrrr"/>
        <phase duration="6"  state="rrrrrrrGGGrrr"/>
        <phase duration="3"  state="rrrrrrryyyrrr"/>
        <phase duration="24" state="GrrrrrrrrrGGg"/>
        <phase duration="3"  state="yrrrrrrrrryyy"/>
        <phase duration="24" state="rrrrGGGrrrrrr"/>
        <phase duration="3"  state="rrrryyyrrrrrr"/>
    </tlLogic>
    <tlLogic id="GS_cluster_257396190_619156028" type="static" programID="0" offset="0">
        <phase duration="27" state="rrGgrrGg"/>
        <phase duration="3"  state="rryyrryy"/>
        <phase duration="27" state="rrrrGGrr"/>
        <phase duration="3"  state="rrrryyrr"/>
        <phase duration="27" state="GGrrrrrr"/>
        <phase duration="3"  state="yyrrrrrr"/>
    </tlLogic>
    <tlLogic id="cluster_10757713184_10757713185" type="static" programID="0" offset="0">
        <phase duration="42" state="GGGggrrrrGGGggrrrr"/>
        <phase duration="3"  state="yyyyyrrrryyyyyrrrr"/>
        <phase duration="42" state="rrrrrGGggrrrrrGGgg"/>
        <phase duration="3"  state="rrrrryyyyrrrrryyyy"/>
    </tlLogic>
    <tlLogic id="cluster_10808093706_257813605" type="static" programID="0" offset="0">
        <phase duration="42" state="GggrrrGGg"/>
        <phase duration="3"  state="yyyrrryyy"/>
        <phase duration="42" state="rrrGGgGrr"/>
        <phase duration="3"  state="rrryyyyrr"/>
    </tlLogic>
    <tlLogic id="cluster_11766385251_6315655554_6315655563" type="static" programID="0" offset="0">
        <phase duration="25" state="rrrGGgGGggrrr"/>
        <phase duration="5"  state="rrryyyyyyyrrr"/>
        <phase duration="25" state="GGGGrrrrrrrrr"/>
        <phase duration="5"  state="yyyyrrrrrrrrr"/>
        <phase duration="25" state="rrrGrrrrrrGGg"/>
        <phase duration="5"  state="rrryrrrrrryyy"/>
    </tlLogic>
    <tlLogic id="cluster_1898482520_257056124_257057903" type="static" programID="0" offset="0">
        <phase duration="82" state="GGGG"/>
        <phase duration="3"  state="yyyy"/>
        <phase duration="5"  state="rrrr"/>
    </tlLogic>
    <tlLogic id="cluster_304779126_304779138_6391842856_6391842857_#4more" type="static" programID="0" offset="0">
        <phase duration="42" state="rrrrGGggrrrrGGgg"/>
        <phase duration="3"  state="rrrryyyyrrrryyyy"/>
        <phase duration="41" state="GGggrrrrGGggrrrr"/>
        <phase duration="3"  state="yyyyrrrryyyyrrrr"/>
        <phase duration="1"  state="rrrrrrrrrrrrrrrr"/>
    </tlLogic>
    <tlLogic id="cluster_5533585715_5533585717" type="static" programID="0" offset="0">
        <phase duration="42" state="GGrr"/>
        <phase duration="3"  state="yyrr"/>
        <phase duration="42" state="rrGG"/>
        <phase duration="3"  state="rryy"/>
    </tlLogic>
    <tlLogic id="joinedS_2697025612_441749692_cluster_10722354413_10722354415_10722354418_10722354474_#3more" type="static" programID="0" offset="0">
        <phase duration="10" state="GGrrrrrrrrrrrrrrrrrrr"/>
        <phase duration="5"  state="yyrrrrrrrrrrrrrrrrrrr"/>
        <phase duration="10" state="rrGGrrrrrrrrrrrrrrrrr"/>
        <phase duration="5"  state="rryyrrrrrrrrrrrrrrrrr"/>
        <phase duration="10" state="rrrrGGGGrrrrrrrrrrrrr"/>
        <phase duration="5"  state="rrrryyyyrrrrrrrrrrrrr"/>
        <phase duration="10" state="rrrrrrrrGGGGrrrrrrrrr"/>
        <phase duration="5"  state="rrrrrrrryyyyrrrrrrrrr"/>
        <phase duration="10" state="rrrrrrrrrrrrGGGGGrrrr"/>
        <phase duration="5"  state="rrrrrrrrrrrryyyyyrrrr"/>
        <phase duration="10" state="rrrrrrrrrrrrrrrrrGGGG"/>
        <phase duration="5"  state="rrrrrrrrrrrrrrrrryyyy"/>
    </tlLogic>
    <tlLogic id="joinedS_304988756_cluster_2561825709_257057482_257057483_257057485_#7more" type="static" programID="0" offset="0">
        <phase duration="25" state="GrrrrrrrrGGGG"/>
        <phase duration="3"  state="yrrrrrrrryyyy"/>
        <phase duration="1"  state="rrrrrrrrrrrrr"/>
        <phase duration="27" state="GrrrrGGGGrrrr"/>
        <phase duration="3"  state="yrrrryyyyrrrr"/>
        <phase duration="27" state="GGGGgGrrrrrrr"/>
        <phase duration="3"  state="yyyyyyrrrrrrr"/>
        <phase duration="1"  state="rrrrrrrrrrrrr"/>
    </tlLogic>
    <tlLogic id="joinedS_3857493172_7453352535" type="static" programID="0" offset="0">
        <phase duration="42" state="rGGGGG"/>
        <phase duration="3"  state="ryyyyy"/>
        <phase duration="42" state="GrrGGG"/>
        <phase duration="3"  state="yrryyy"/>
    </tlLogic>

    <connection from="-1156039324" to="752298269#1" fromLane="0" toLane="0" tl="cluster_10757713184_10757713185" linkIndex="5"/>
    <connection from="-1156039324" to="-1115805847#0" fromLane="0" toLane="0" tl="cluster_10757713184_10757713185" linkIndex="6"/>
    <connection from="-1156039324" to="752298268#1" fromLane="0" toLane="1" tl="cluster_10757713184_10757713185" linkIndex="7"/>
    <connection from="-1156039324" to="1115805847#2" fromLane="0" toLane="0" tl="cluster_10757713184_10757713185" linkIndex="8"/>
    <connection from="-1163555411#2" to="-1163555411#0" fromLane="0" toLane="0" tl="6391843513" linkIndex="1"/>
    <connection from="-1300488682#1" to="-1300488682#0" fromLane="0" toLane="0" tl="12045767385" linkIndex="1"/>
    <connection from="-48796658#2" to="23735096#4" fromLane="0" toLane="0" tl="cluster_304779126_304779138_6391842856_6391842857_#4more" linkIndex="8"/>
    <connection from="-48796658#2" to="-48796663#1" fromLane="0" toLane="0" tl="cluster_304779126_304779138_6391842856_6391842857_#4more" linkIndex="9"/>
    <connection from="-48796658#2" to="23735095#4" fromLane="0" toLane="0" tl="cluster_304779126_304779138_6391842856_6391842857_#4more" linkIndex="10"/>
    <connection from="-48796658#2" to="48796658#1" fromLane="0" toLane="0" tl="cluster_304779126_304779138_6391842856_6391842857_#4more" linkIndex="11"/>
    <connection from="-48796669" to="23735095#4" fromLane="0" toLane="0" tl="cluster_304779126_304779138_6391842856_6391842857_#4more" linkIndex="0"/>
    <connection from="-48796669" to="48796658#1" fromLane="0" toLane="0" tl="cluster_304779126_304779138_6391842856_6391842857_#4more" linkIndex="1"/>
    <connection from="-48796669" to="23735096#4" fromLane="0" toLane="0" tl="cluster_304779126_304779138_6391842856_6391842857_#4more" linkIndex="2"/>
    <connection from="-48796669" to="-48796663#1" fromLane="0" toLane="0" tl="cluster_304779126_304779138_6391842856_6391842857_#4more" linkIndex="3"/>
    <connection from="-48796674#2" to="-988736348" fromLane="0" toLane="0" tl="joinedS_2697025612_441749692_cluster_10722354413_10722354415_10722354418_10722354474_#3more" linkIndex="17"/>
    <connection from="-48796674#2" to="1152783647#2" fromLane="0" toLane="0" tl="joinedS_2697025612_441749692_cluster_10722354413_10722354415_10722354418_10722354474_#3more" linkIndex="18"/>
    <connection from="-48796674#2" to="652870334#3" fromLane="0" toLane="1" tl="joinedS_2697025612_441749692_cluster_10722354413_10722354415_10722354418_10722354474_#3more" linkIndex="19"/>
    <connection from="-48796674#2" to="48796674#2" fromLane="0" toLane="0" tl="joinedS_2697025612_441749692_cluster_10722354413_10722354415_10722354418_10722354474_#3more" linkIndex="20"/>
    <connection from="-48796684#2" to="-48796650#3" fromLane="0" toLane="0" tl="GS_619155672" linkIndex="6"/>
    <connection from="-48796684#2" to="560544697#0" fromLane="0" toLane="0" tl="GS_619155672" linkIndex="7"/>
    <connection from="-48796684#2" to="48796684#0" fromLane="0" toLane="0" tl="GS_619155672" linkIndex="8"/>
    <connection from="-48796734#1" to="382543213#0" fromLane="0" toLane="0" tl="GS_cluster_257387640_538415378" linkIndex="10"/>
    <connection from="-48796734#1" to="369258844" fromLane="0" toLane="0" tl="GS_cluster_257387640_538415378" linkIndex="11"/>
    <connection from="-48796734#1" to="48796734#0" fromLane="0" toLane="0" tl="GS_cluster_257387640_538415378" linkIndex="12"/>
    <connection from="-48815511#1" to="-48815462#1" fromLane="0" toLane="0" tl="cluster_619343751_619343756" linkIndex="0"/>
    <connection from="-560544697#2" to="48796684#0" fromLane="0" toLane="0" tl="GS_619155672" linkIndex="9"/>
    <connection from="-560544697#2" to="-48796650#3" fromLane="0" toLane="0" tl="GS_619155672" linkIndex="10"/>
    <connection from="-560544697#2" to="560544697#0" fromLane="0" toLane="0" tl="GS_619155672" linkIndex="11"/>
    <connection from="-599926488#2" to="-599926488#0" fromLane="0" toLane="0" tl="cluster_2734027655_90710899" linkIndex="1"/>
    <connection from="-60633930#3" to="-60633930#1" fromLane="0" toLane="0" tl="5492164151" linkIndex="0"/>
    <connection from="-60639041#1" to="23793058#5" fromLane="0" toLane="0" tl="cluster_10808093706_257813605" linkIndex="3"/>
    <connection from="-60639041#1" to="225037423#4" fromLane="0" toLane="0" tl="cluster_10808093706_257813605" linkIndex="4"/>
    <connection from="-60639041#1" to="60639041#1" fromLane="0" toLane="0" tl="cluster_10808093706_257813605" linkIndex="5"/>
    <connection from="-661529991#1" to="-661529991#0" fromLane="0" toLane="0" tl="6193077126" linkIndex="0"/>
    <connection from="-684907504#1" to="-560544708#2" fromLane="0" toLane="0" tl="GS_cluster_257396190_619156028" linkIndex="6"/>
    <connection from="-684907504#1" to="684907504#0" fromLane="0" toLane="0" tl="GS_cluster_257396190_619156028" linkIndex="7"/>
    <connection from="-868812839#3" to="-868812839#2" fromLane="0" toLane="0" tl="758722690" linkIndex="1"/>
    <connection from="-868812839#6" to="-868812839#4" fromLane="0" toLane="0" tl="6391843512" linkIndex="1"/>
    <connection from="1005516406#1" to="599926488#2" fromLane="0" toLane="0" tl="cluster_2734027655_90710899" linkIndex="0"/>
    <connection from="1152783650#1" to="1152783650#3" fromLane="0" toLane="0" tl="joinedS_2697025612_441749692_cluster_10722354413_10722354415_10722354418_10722354474_#3more" linkIndex="0"/>
    <connection from="1152783650#1" to="1152783650#3" fromLane="1" toLane="1" tl="joinedS_2697025612_441749692_cluster_10722354413_10722354415_10722354418_10722354474_#3more" linkIndex="1"/>
    <connection from="1156039325#1" to="752298268#1" fromLane="0" toLane="0" tl="cluster_10757713184_10757713185" linkIndex="14"/>
    <connection from="1156039325#1" to="1115805847#2" fromLane="0" toLane="0" tl="cluster_10757713184_10757713185" linkIndex="15"/>
    <connection from="1156039325#1" to="752298269#1" fromLane="0" toLane="1" tl="cluster_10757713184_10757713185" linkIndex="16"/>
    <connection from="1156039325#1" to="-1115805847#0" fromLane="0" toLane="0" tl="cluster_10757713184_10757713185" linkIndex="17"/>
    <connection from="1163555411#0" to="1163555411#1" fromLane="0" toLane="0" tl="6391843513" linkIndex="0"/>
    <connection from="1300488682#0" to="1300488682#1" fromLane="0" toLane="0" tl="12045767385" linkIndex="0"/>
    <connection from="156792642#0" to="156792642#1" fromLane="0" toLane="0" tl="6193077126" linkIndex="-1"/>
    <connection from="179466461#0" to="179466461#1" fromLane="0" toLane="0" tl="6391904225" linkIndex="0"/>
    <connection from="179466461#0" to="179466461#1" fromLane="1" toLane="1" tl="6391904225" linkIndex="1"/>
    <connection from="204975786#0" to="204975786#1" fromLane="0" toLane="0" tl="5706746022" linkIndex="0"/>
    <connection from="204975787#0" to="204975787#1" fromLane="0" toLane="0" tl="5492164154" linkIndex="0"/>
    <connection from="225037423#3" to="225037423#4" fromLane="0" toLane="0" tl="cluster_10808093706_257813605" linkIndex="0"/>
    <connection from="225037423#3" to="60639041#1" fromLane="0" toLane="0" tl="cluster_10808093706_257813605" linkIndex="1"/>
    <connection from="225037423#3" to="23793058#5" fromLane="0" toLane="0" tl="cluster_10808093706_257813605" linkIndex="2"/>
    <connection from="23735095#0" to="-48796663#1" fromLane="0" toLane="0" tl="cluster_304779126_304779138_6391842856_6391842857_#4more" linkIndex="4"/>
    <connection from="23735095#0" to="23735095#4" fromLane="0" toLane="0" tl="cluster_304779126_304779138_6391842856_6391842857_#4more" linkIndex="5"/>
    <connection from="23735095#0" to="48796658#1" fromLane="0" toLane="0" tl="cluster_304779126_304779138_6391842856_6391842857_#4more" linkIndex="6"/>
    <connection from="23735095#0" to="23735096#4" fromLane="0" toLane="0" tl="cluster_304779126_304779138_6391842856_6391842857_#4more" linkIndex="7"/>
    <connection from="23735096#0" to="48796658#1" fromLane="0" toLane="0" tl="cluster_304779126_304779138_6391842856_6391842857_#4more" linkIndex="12"/>
    <connection from="23735096#0" to="23735096#4" fromLane="0" toLane="0" tl="cluster_304779126_304779138_6391842856_6391842857_#4more" linkIndex="13"/>
    <connection from="23735096#0" to="-48796663#1" fromLane="0" toLane="0" tl="cluster_304779126_304779138_6391842856_6391842857_#4more" linkIndex="14"/>
    <connection from="23735096#0" to="23735095#4" fromLane="0" toLane="0" tl="cluster_304779126_304779138_6391842856_6391842857_#4more" linkIndex="15"/>
    <connection from="23735200#3" to="23735200#4" fromLane="0" toLane="0" tl="6391904224" linkIndex="0"/>
    <connection from="23735200#3" to="23735200#4" fromLane="1" toLane="1" tl="6391904224" linkIndex="1"/>
    <connection from="23735202#3" to="23735202#4" fromLane="0" toLane="0" tl="5492164150" linkIndex="0"/>
    <connection from="23735202#3" to="23735202#4" fromLane="1" toLane="1" tl="5492164150" linkIndex="1"/>
    <connection from="23735202#4" to="23735209" fromLane="0" toLane="0" tl="joinedS_304988756_cluster_2561825709_257057482_257057483_257057485_#7more" linkIndex="1"/>
    <connection from="23735202#4" to="23735209" fromLane="1" toLane="1" tl="joinedS_304988756_cluster_2561825709_257057482_257057483_257057485_#7more" linkIndex="2"/>
    <connection from="23735202#4" to="27776735#3" fromLane="1" toLane="1" tl="joinedS_304988756_cluster_2561825709_257057482_257057483_257057485_#7more" linkIndex="3"/>
    <connection from="23735202#4" to="23735119#4" fromLane="1" toLane="1" tl="joinedS_304988756_cluster_2561825709_257057482_257057483_257057485_#7more" linkIndex="4"/>
    <connection from="23735206#0" to="23735206#2" fromLane="0" toLane="0" tl="5492164149" linkIndex="0"/>
    <connection from="23735206#0" to="23735206#2" fromLane="1" toLane="1" tl="5492164149" linkIndex="1"/>
    <connection from="23735206#4" to="23735206#5" fromLane="0" toLane="0" tl="5492164153" linkIndex="0"/>
    <connection from="23735206#4" to="23735206#5" fromLane="1" toLane="1" tl="5492164153" linkIndex="1"/>
    <connection from="23755709#0" to="48796734#0" fromLane="0" toLane="0" tl="GS_cluster_257387640_538415378" linkIndex="0"/>
    <connection from="23755709#0" to="382543213#0" fromLane="0" toLane="0" tl="GS_cluster_257387640_538415378" linkIndex="1"/>
    <connection from="23755709#0" to="382543213#0" fromLane="1" toLane="1" tl="GS_cluster_257387640_538415378" linkIndex="2"/>
    <connection from="23755709#0" to="369258844" fromLane="1" toLane="0" tl="GS_cluster_257387640_538415378" linkIndex="3"/>
    <connection from="23755936" to="640701960#0" fromLane="0" toLane="0" tl="joinedS_3857493172_7453352535" linkIndex="1"/>
    <connection from="23755936" to="640701960#0" fromLane="1" toLane="1" tl="joinedS_3857493172_7453352535" linkIndex="2"/>
    <connection from="23793058#4" to="60639041#1" fromLane="0" toLane="0" tl="cluster_10808093706_257813605" linkIndex="6"/>
    <connection from="23793058#4" to="23793058#5" fromLane="0" toLane="0" tl="cluster_10808093706_257813605" linkIndex="7"/>
    <connection from="23793058#4" to="225037423#4" fromLane="0" toLane="0" tl="cluster_10808093706_257813605" linkIndex="8"/>
    <connection from="264028462#0" to="264028462#1" fromLane="0" toLane="0" tl="cluster_619343751_619343756" linkIndex="-1"/>
    <connection from="264028463#0" to="264028463#1" fromLane="0" toLane="0" tl="cluster_619343751_619343756" linkIndex="-1"/>
    <connection from="264028472#1" to="10526289#1" fromLane="0" toLane="0" tl="cluster_2734027655_90710899" linkIndex="-1"/>
    <connection from="27776496#0" to="27776496#2" fromLane="0" toLane="0" tl="joinedS_304988756_cluster_2561825709_257057482_257057483_257057485_#7more" linkIndex="0"/>
    <connection from="27777441#2" to="652870343" fromLane="0" toLane="0" tl="cluster_1898482520_257056124_257057903" linkIndex="0"/>
    <connection from="27777441#2" to="652870343" fromLane="1" toLane="1" tl="cluster_1898482520_257056124_257057903" linkIndex="1"/>
    <connection from="331909107#0" to="560544697#0" fromLane="0" toLane="0" tl="GS_619155672" linkIndex="0"/>
    <connection from="331909107#0" to="48796684#0" fromLane="0" toLane="0" tl="GS_619155672" linkIndex="1"/>
    <connection from="331909107#0" to="-48796650#3" fromLane="1" toLane="0" tl="GS_619155672" linkIndex="2"/>
    <connection from="368804651#3" to="382542328" fromLane="0" toLane="0" tl="joinedS_3857493172_7453352535" linkIndex="3"/>
    <connection from="368804651#3" to="368804650" fromLane="1" toLane="0" tl="joinedS_3857493172_7453352535" linkIndex="4"/>
    <connection from="368804651#3" to="368804650" fromLane="2" toLane="1" tl="joinedS_3857493172_7453352535" linkIndex="5"/>
    <connection from="382329292#1" to="27776735#3" fromLane="0" toLane="0" tl="joinedS_304988756_cluster_2561825709_257057482_257057483_257057485_#7more" linkIndex="9"/>
    <connection from="382329292#1" to="27776735#3" fromLane="1" toLane="1" tl="joinedS_304988756_cluster_2561825709_257057482_257057483_257057485_#7more" linkIndex="10"/>
    <connection from="382329292#1" to="23735119#4" fromLane="1" toLane="1" tl="joinedS_304988756_cluster_2561825709_257057482_257057483_257057485_#7more" linkIndex="11"/>
    <connection from="382329292#1" to="23735209" fromLane="1" toLane="1" tl="joinedS_304988756_cluster_2561825709_257057482_257057483_257057485_#7more" linkIndex="12"/>
    <connection from="382542312" to="640701960#0" fromLane="0" toLane="0" tl="joinedS_3857493172_7453352535" linkIndex="0"/>
    <connection from="48796650#1" to="560544697#0" fromLane="0" toLane="0" tl="GS_619155672" linkIndex="3"/>
    <connection from="48796650#1" to="48796684#0" fromLane="1" toLane="0" tl="GS_619155672" linkIndex="4"/>
    <connection from="48796650#1" to="-48796650#3" fromLane="1" toLane="0" tl="GS_619155672" linkIndex="5"/>
    <connection from="48796673#0" to="-988736348" fromLane="0" toLane="0" tl="joinedS_2697025612_441749692_cluster_10722354413_10722354415_10722354418_10722354474_#3more" linkIndex="8"/>
    <connection from="48796673#0" to="1152783647#2" fromLane="0" toLane="0" tl="joinedS_2697025612_441749692_cluster_10722354413_10722354415_10722354418_10722354474_#3more" linkIndex="9"/>
    <connection from="48796673#0" to="652870334#3" fromLane="0" toLane="0" tl="joinedS_2697025612_441749692_cluster_10722354413_10722354415_10722354418_10722354474_#3more" linkIndex="10"/>
    <connection from="48796673#0" to="48796674#2" fromLane="0" toLane="0" tl="joinedS_2697025612_441749692_cluster_10722354413_10722354415_10722354418_10722354474_#3more" linkIndex="11"/>
    <connection from="48796738#0" to="-560544708#2" fromLane="0" toLane="0" tl="GS_cluster_257396190_619156028" linkIndex="4"/>
    <connection from="48796738#0" to="684907504#0" fromLane="1" toLane="0" tl="GS_cluster_257396190_619156028" linkIndex="5"/>
    <connection from="48796750#1" to="684907504#0" fromLane="0" toLane="0" tl="GS_cluster_257396190_619156028" linkIndex="0"/>
    <connection from="48796750#1" to="-560544708#2" fromLane="0" toLane="0" tl="GS_cluster_257396190_619156028" linkIndex="1"/>
    <connection from="48815462#1" to="48815511#1" fromLane="0" toLane="0" tl="cluster_619343751_619343756" linkIndex="1"/>
    <connection from="51821547#0" to="23735119#4" fromLane="0" toLane="0" tl="joinedS_304988756_cluster_2561825709_257057482_257057483_257057485_#7more" linkIndex="5"/>
    <connection from="51821547#0" to="23735209" fromLane="0" toLane="0" tl="joinedS_304988756_cluster_2561825709_257057482_257057483_257057485_#7more" linkIndex="6"/>
    <connection from="51821547#0" to="23735209" fromLane="1" toLane="1" tl="joinedS_304988756_cluster_2561825709_257057482_257057483_257057485_#7more" linkIndex="7"/>
    <connection from="51821547#0" to="27776735#3" fromLane="1" toLane="1" tl="joinedS_304988756_cluster_2561825709_257057482_257057483_257057485_#7more" linkIndex="8"/>
    <connection from="550900607#2" to="23735202#2" fromLane="0" toLane="0" tl="5492164152" linkIndex="0"/>
    <connection from="550900607#2" to="23735202#2" fromLane="1" toLane="1" tl="5492164152" linkIndex="1"/>
    <connection from="560550386#1" to="-683556009" fromLane="0" toLane="0" tl="cluster_11766385251_6315655554_6315655563" linkIndex="6"/>
    <connection from="560550386#1" to="-683556009" fromLane="0" toLane="1" tl="cluster_11766385251_6315655554_6315655563" linkIndex="7"/>
    <connection from="560550386#1" to="674374311" fromLane="0" toLane="0" tl="cluster_11766385251_6315655554_6315655563" linkIndex="8"/>
    <connection from="560550386#1" to="-560550386#1" fromLane="0" toLane="0" tl="cluster_11766385251_6315655554_6315655563" linkIndex="9"/>
    <connection from="576814115#7" to="576814115#9" fromLane="0" toLane="0" tl="5492164156" linkIndex="0"/>
    <connection from="577152095#0" to="577152095#1" fromLane="0" toLane="0" tl="cluster_5533585715_5533585717" linkIndex="0"/>
    <connection from="577152095#0" to="60633849#2" fromLane="0" toLane="0" tl="cluster_5533585715_5533585717" linkIndex="1"/>
    <connection from="599974687#0" to="-179466459" fromLane="0" toLane="0" tl="cluster_1898482520_257056124_257057903" linkIndex="2"/>
    <connection from="599974687#0" to="-179466459" fromLane="1" toLane="1" tl="cluster_1898482520_257056124_257057903" linkIndex="3"/>
    <connection from="60633849#0" to="577152095#1" fromLane="0" toLane="0" tl="cluster_5533585715_5533585717" linkIndex="2"/>
    <connection from="60633849#0" to="60633849#2" fromLane="0" toLane="0" tl="cluster_5533585715_5533585717" linkIndex="3"/>
    <connection from="60633865#0" to="60633865#1" fromLane="0" toLane="0" tl="5706746023" linkIndex="0"/>
    <connection from="60633903#1" to="60633903#2" fromLane="0" toLane="0" tl="6391843511" linkIndex="0"/>
    <connection from="60633930#1" to="60633930#2" fromLane="0" toLane="0" tl="5492164151" linkIndex="1"/>
    <connection from="640701961#3" to="369258844" fromLane="0" toLane="0" tl="GS_cluster_257387640_538415378" linkIndex="7"/>
    <connection from="640701961#3" to="48796734#0" fromLane="1" toLane="0" tl="GS_cluster_257387640_538415378" linkIndex="8"/>
    <connection from="640701961#3" to="382543213#0" fromLane="1" toLane="1" tl="GS_cluster_257387640_538415378" linkIndex="9"/>
    <connection from="648243517#0" to="648243517#1" fromLane="0" toLane="0" tl="12045767385" linkIndex="-1"/>
    <connection from="652870334#0" to="-988736348" fromLane="0" toLane="0" tl="joinedS_2697025612_441749692_cluster_10722354413_10722354415_10722354418_10722354474_#3more" linkIndex="12"/>
    <connection from="652870334#0" to="1152783647#2" fromLane="0" toLane="0" tl="joinedS_2697025612_441749692_cluster_10722354413_10722354415_10722354418_10722354474_#3more" linkIndex="13"/>
    <connection from="652870334#0" to="652870334#3" fromLane="0" toLane="0" tl="joinedS_2697025612_441749692_cluster_10722354413_10722354415_10722354418_10722354474_#3more" linkIndex="14"/>
    <connection from="652870334#0" to="652870334#3" fromLane="1" toLane="1" tl="joinedS_2697025612_441749692_cluster_10722354413_10722354415_10722354418_10722354474_#3more" linkIndex="15"/>
    <connection from="652870334#0" to="48796674#2" fromLane="1" toLane="0" tl="joinedS_2697025612_441749692_cluster_10722354413_10722354415_10722354418_10722354474_#3more" linkIndex="16"/>
    <connection from="661529991#0" to="661529991#1" fromLane="0" toLane="0" tl="6193077126" linkIndex="1"/>