<?xml version="1.0" encoding="UTF-8"?>

<!-- generated on 2025-04-04 16:25:30 by Eclipse SUMO netconvert Version 1.19.0
<configuration xmlns:xsi="http://www.w3.org/2001/XMLSchema-instance" xsi:noNamespaceSchemaLocation="http://sumo.dlr.de/xsd/netconvertConfiguration.xsd">

    <input>
        <sumo-net-file value="les_mureaux/les_mureaux.net.xml"/>
    </input>

    <output>
        <plain-output-prefix value="les_mureaux/les_mureaux"/>
    </output>

    <processing>
        <geometry.min-radius.fix.railways value="false"/>
        <geometry.max-grade.fix value="false"/>
        <offset.disable-normalization value="true"/>
        <lefthand value="0"/>
    </processing>

    <tls_building>
        <tls.ignore-internal-junction-jam value="1"/>
    </tls_building>

    <junctions>
        <no-turnarounds value="true"/>
        <junctions.corner-detail value="5"/>
        <junctions.limit-turn-speed value="5.50"/>
        <rectangular-lane-cut value="0"/>
    </junctions>

    <pedestrian>
        <walkingareas value="0"/>
    </pedestrian>

</configuration>
-->

<connections version="1.16" xmlns:xsi="http://www.w3.org/2001/XMLSchema-instance" xsi:noNamespaceSchemaLocation="http://sumo.dlr.de/xsd/connections_file.xsd">
    <connection from="-1005516392" to="1005516392" fromLane="0" toLane="0"/>

    <connection from="-1005516397" to="48796741" fromLane="0" toLane="0"/>

    <connection from="-1005516401" to="-48796747" fromLane="0" toLane="0"/>
    <connection from="-1005516401" to="700001329" fromLane="0" toLane="0"/>
    <connection from="-1005516401" to="1005516401" fromLane="0" toLane="0"/>

    <connection from="-1005516406#0" to="-48796642#0" fromLane="0" toLane="0"/>

    <connection from="-1012173543" to="211479227#1" fromLane="0" toLane="0"/>
    <connection from="-1012173543" to="-211479227#0" fromLane="0" toLane="0"/>
    <connection from="-1012173543" to="1012173543" fromLane="0" toLane="0"/>

    <connection from="-1017837112#0" to="331909108#1" fromLane="0" toLane="0"/>
    <connection from="-1017837112#0" to="-331909108#0" fromLane="0" toLane="0"/>
    <connection from="-1017837112#0" to="1017837112#0" fromLane="0" toLane="0"/>

    <connection from="-1017837112#1" to="-1017837112#2" fromLane="0" toLane="0"/>
    <connection from="-1017837112#1" to="-1017837112#0" fromLane="0" toLane="0"/>
    <connection from="-1017837112#1" to="1017837112#1" fromLane="0" toLane="0"/>

    <connection from="-1017837112#2" to="-1017837112#1" fromLane="0" toLane="0"/>

    <connection from="-1026653331#0" to="-38568776#6" fromLane="0" toLane="0"/>

    <connection from="-1026653331#1" to="-1026653331#0" fromLane="0" toLane="0"/>
    <connection from="-1026653331#1" to="501188937#0" fromLane="0" toLane="0"/>

    <connection from="-1026653332" to="-38579182" fromLane="0" toLane="0"/>

    <connection from="-1026653333" to="-560589723#1" fromLane="0" toLane="0"/>

    <connection from="-1026653334#0" to="-501188946#4" fromLane="0" toLane="0"/>
    <connection from="-1026653334#0" to="38611935#0" fromLane="0" toLane="0"/>
    <connection from="-1026653334#0" to="1026653334#0" fromLane="0" toLane="0"/>

    <connection from="-1026653334#2" to="378016866#0" fromLane="0" toLane="0"/>
    <connection from="-1026653334#2" to="-1026653334#0" fromLane="0" toLane="0"/>
    <connection from="-1026653334#2" to="289164609" fromLane="0" toLane="0"/>

    <connection from="-1026653334#3" to="-1026653334#2" fromLane="0" toLane="0"/>
    <connection from="-1026653334#3" to="-38579187#1" fromLane="0" toLane="0"/>
    <connection from="-1026653334#3" to="1026653334#3" fromLane="0" toLane="0"/>

    <connection from="-1026653335#0" to="-560589711#0" fromLane="0" toLane="0"/>
    <connection from="-1026653335#0" to="560589711#1" fromLane="0" toLane="0"/>
    <connection from="-1026653335#0" to="1026653335#0" fromLane="0" toLane="0"/>

    <connection from="-1026653335#1" to="-1026653335#0" fromLane="0" toLane="0"/>
    <connection from="-1026653335#1" to="-427215267#1" fromLane="0" toLane="0"/>
    <connection from="-1026653335#1" to="1026653335#1" fromLane="0" toLane="0"/>

    <connection from="-1027207855" to="490551887#1" fromLane="0" toLane="0"/>
    <connection from="-1027207855" to="-490551887#0" fromLane="0" toLane="0"/>
    <connection from="-1027207855" to="1027207855" fromLane="0" toLane="0"/>

    <connection from="-1047497681" to="42046810#1" fromLane="0" toLane="0" visibility="9.00"/>

    <connection from="-1047497682#0" to="-751382896#1" fromLane="0" toLane="0"/>
    <connection from="-1047497682#0" to="-207590969#1" fromLane="0" toLane="0"/>
    <connection from="-1047497682#0" to="751382896#2" fromLane="0" toLane="0"/>
    <connection from="-1047497682#0" to="23734979#2" fromLane="0" toLane="0"/>
    <connection from="-1047497682#0" to="1047497682#0" fromLane="0" toLane="0"/>

    <connection from="-1047497682#1" to="23734986#1" fromLane="0" toLane="0"/>
    <connection from="-1047497682#1" to="-1047497682#0" fromLane="0" toLane="0"/>
    <connection from="-1047497682#1" to="1047497682#1" fromLane="0" toLane="0"/>

    <connection from="-1047614060" to="-560655964#1" fromLane="0" toLane="0"/>
    <connection from="-1047614060" to="244549189#0" fromLane="0" toLane="0"/>

    <connection from="-1056177185#0" to="382542326#3" fromLane="0" toLane="0"/>
    <connection from="-1056177185#0" to="-1277800076" fromLane="0" toLane="0"/>
    <connection from="-1056177185#0" to="-382542326#1" fromLane="0" toLane="0"/>
    <connection from="-1056177185#0" to="1056177185#0" fromLane="0" toLane="0"/>

    <connection from="-1056177185#1" to="-1056177185#3" fromLane="0" toLane="0"/>
    <connection from="-1056177185#1" to="-1056177185#0" fromLane="0" toLane="0"/>
    <connection from="-1056177185#1" to="1056177185#1" fromLane="0" toLane="0"/>

    <connection from="-1056177185#2" to="-1056177185#1" fromLane="0" toLane="0"/>
    <connection from="-1056177185#2" to="1278287561" fromLane="0" toLane="0"/>
    <connection from="-1056177185#2" to="1056177185#2" fromLane="0" toLane="0"/>

    <connection from="-1056177185#3" to="-1056177185#2" fromLane="0" toLane="0"/>
    <connection from="-1056177185#3" to="1278287565#0" fromLane="0" toLane="0"/>
    <connection from="-1056177185#3" to="1056177185#3" fromLane="0" toLane="0"/>

    <connection from="-1056177186" to="-369333883" fromLane="0" toLane="0" keepClear="0"/>

    <connection from="-1056177187" to="396367492#2" fromLane="0" toLane="0"/>
    <connection from="-1056177187" to="-396367492#1" fromLane="0" toLane="0"/>
    <connection from="-1056177187" to="1056177187" fromLane="0" toLane="0"/>

    <connection from="-1060200978" to="-1060200979#0" fromLane="0" toLane="0"/>
    <connection from="-1060200978" to="1060200979#1" fromLane="0" toLane="0"/>
    <connection from="-1060200978" to="1060200978" fromLane="0" toLane="0"/>

    <connection from="-1060200979#0" to="203267685#1" fromLane="0" toLane="0"/>
    <connection from="-1060200979#0" to="-203267685#0" fromLane="0" toLane="0"/>
    <connection from="-1060200979#0" to="1060200979#0" fromLane="0" toLane="0"/>

    <connection from="-1060200979#1" to="1060200978" fromLane="0" toLane="0"/>
    <connection from="-1060200979#1" to="-1060200979#0" fromLane="0" toLane="0"/>
    <connection from="-1060200979#1" to="1060200979#1" fromLane="0" toLane="0"/>

    <connection from="-1060200980" to="-155591389#1" fromLane="0" toLane="0"/>
    <connection from="-1060200980" to="155591389#2" fromLane="0" toLane="0"/>
    <connection from="-1060200980" to="1060200980" fromLane="0" toLane="0"/>

    <connection from="-1075608214" to="143415307#1" fromLane="0" toLane="0"/>
    <connection from="-1075608214" to="-143415307#0" fromLane="0" toLane="0"/>
    <connection from="-1075608214" to="1075608214" fromLane="0" toLane="0"/>

    <connection from="-1075608216#1" to="143415330" fromLane="0" toLane="0"/>
    <connection from="-1075608216#1" to="143415317#0" fromLane="0" toLane="0"/>
    <connection from="-1075608216#1" to="143415375#1" fromLane="0" toLane="0"/>
    <connection from="-1075608216#1" to="-143415374" fromLane="0" toLane="0"/>
    <connection from="-1075608216#1" to="1075608216#1" fromLane="0" toLane="0"/>

    <connection from="-1077171001#0" to="369218161#1" fromLane="0" toLane="0"/>
    <connection from="-1077171001#0" to="-369218161#0" fromLane="0" toLane="0"/>
    <connection from="-1077171001#0" to="1077171001#0" fromLane="0" toLane="0"/>

    <connection from="-1077171001#1" to="369254204#1" fromLane="0" toLane="0"/>
    <connection from="-1077171001#1" to="-1077171001#0" fromLane="0" toLane="0"/>
    <connection from="-1077171001#1" to="-369254204#0" fromLane="0" toLane="0"/>
    <connection from="-1077171001#1" to="1077171001#1" fromLane="0" toLane="0"/>

    <connection from="-1087084598" to="-36870859" fromLane="0" toLane="0"/>

    <connection from="-1087084600" to="-432844474" fromLane="0" toLane="0"/>
    <connection from="-1087084600" to="-61742082" fromLane="0" toLane="0"/>
    <connection from="-1087084600" to="1087084600" fromLane="0" toLane="0"/>

    <connection from="-1089958393" to="1240774218" fromLane="0" toLane="0"/>
    <connection from="-1089958393" to="560544696#2" fromLane="0" toLane="1"/>
    <connection from="-1089958393" to="-560544696#0" fromLane="0" toLane="1"/>
    <connection from="-1089958393" to="1089958393" fromLane="0" toLane="0"/>

    <connection from="-1091359197#0" to="1091359197#0" fromLane="1" toLane="1"/>

    <connection from="-1091359197#1" to="-45734860" fromLane="0" toLane="0"/>
    <connection from="-1091359197#1" to="-1091359197#0" fromLane="0" toLane="0"/>
    <connection from="-1091359197#1" to="-1091359197#0" fromLane="1" toLane="1"/>

    <connection from="-1091359198" to="-1219757303" fromLane="0" toLane="0"/>
    <connection from="-1091359198" to="-1091359197#1" fromLane="0" toLane="0"/>
    <connection from="-1091359198" to="-1091359197#1" fromLane="1" toLane="1"/>

    <connection from="-1106659670" to="1106659672#0" fromLane="0" toLane="0" visibility="9.00"/>

    <connection from="-1106659671#0" to="-1106659670" fromLane="0" toLane="0"/>

    <connection from="-1106659671#1" to="-1106659671#0" fromLane="0" toLane="0"/>
    <connection from="-1106659671#1" to="-1106659679" fromLane="0" toLane="0"/>
    <connection from="-1106659671#1" to="1106659671#1" fromLane="0" toLane="0"/>

    <connection from="-1106659673#0" to="1106659673#0" fromLane="0" toLane="0"/>

    <connection from="-1106659673#1" to="-1106659673#0" fromLane="0" toLane="0"/>
    <connection from="-1106659673#1" to="-1106659677" fromLane="0" toLane="0"/>
    <connection from="-1106659673#1" to="1106659673#1" fromLane="0" toLane="0"/>

    <connection from="-1106659674" to="1106659674" fromLane="0" toLane="0"/>

    <connection from="-1106659675#0" to="1282229864" fromLane="0" toLane="0"/>
    <connection from="-1106659675#0" to="1106659675#0" fromLane="0" toLane="0"/>

    <connection from="-1106659675#1" to="-1282229864" fromLane="0" toLane="0"/>
    <connection from="-1106659675#1" to="-1106659675#0" fromLane="0" toLane="0"/>
    <connection from="-1106659675#1" to="1106659675#1" fromLane="0" toLane="0"/>

    <connection from="-1106659675#2" to="-1106659675#1" fromLane="0" toLane="0"/>
    <connection from="-1106659675#2" to="1106659675#2" fromLane="0" toLane="0"/>

    <connection from="-1106659675#3" to="-1106659675#2" fromLane="0" toLane="0"/>
    <connection from="-1106659675#3" to="1106659675#3" fromLane="0" toLane="0"/>

    <connection from="-1106659675#4" to="-1106659675#3" fromLane="0" toLane="0"/>
    <connection from="-1106659675#4" to="1106659675#4" fromLane="0" toLane="0"/>

    <connection from="-1106659677" to="1106659677" fromLane="0" toLane="0"/>

    <connection from="-1106659679" to="1106659679" fromLane="0" toLane="0"/>

    <connection from="-1106659680#0" to="1106659680#0" fromLane="0" toLane="0"/>

    <connection from="-1106659680#2" to="-1282229870#1" fromLane="0" toLane="0"/>
    <connection from="-1106659680#2" to="-1106659680#0" fromLane="0" toLane="0"/>
    <connection from="-1106659680#2" to="1106659680#2" fromLane="0" toLane="0"/>

    <connection from="-1106659682" to="-1106659680#2" fromLane="0" toLane="0"/>
    <connection from="-1106659682" to="1106659682" fromLane="0" toLane="0"/>

    <connection from="-1107073478" to="-48796734#2" fromLane="0" toLane="0"/>
    <connection from="-1107073478" to="369333883" fromLane="0" toLane="0"/>
    <connection from="-1107073478" to="-560544713" fromLane="0" toLane="0"/>
    <connection from="-1107073478" to="-1278287552" fromLane="0" toLane="0"/>
    <connection from="-1107073478" to="1107073478" fromLane="0" toLane="0"/>

    <connection from="-1107073479" to="-48796734#1" fromLane="0" toLane="0"/>
    <connection from="-1107073479" to="48796734#2" fromLane="0" toLane="0"/>
    <connection from="-1107073479" to="1107073479" fromLane="0" toLane="0"/>

    <connection from="-1107401567#0" to="-60633872#3" fromLane="0" toLane="0"/>
    <connection from="-1107401567#0" to="60633856#0" fromLane="0" toLane="0"/>
    <connection from="-1107401567#0" to="1356134402" fromLane="0" toLane="0"/>
    <connection from="-1107401567#0" to="1356134401#0" fromLane="0" toLane="0"/>
    <connection from="-1107401567#0" to="1107401566" fromLane="0" toLane="0"/>

    <connection from="-1107401567#1" to="-60681198#2" fromLane="0" toLane="0"/>
    <connection from="-1107401567#1" to="-1107401567#0" fromLane="0" toLane="0"/>
    <connection from="-1107401567#1" to="1107401567#1" fromLane="0" toLane="0"/>

    <connection from="-1107401570#0" to="1282010685" fromLane="0" toLane="0"/>
    <connection from="-1107401570#0" to="-868814782#0" fromLane="0" toLane="0"/>

    <connection from="-1107401571#0" to="60633874" fromLane="0" toLane="0"/>
    <connection from="-1107401571#0" to="-1107401570#0" fromLane="0" toLane="0"/>
    <connection from="-1107401571#0" to="576814099#1" fromLane="0" toLane="0"/>

    <connection from="-1107401573#0" to="60633921#0" fromLane="0" toLane="0"/>
    <connection from="-1107401573#0" to="-868812839#6" fromLane="0" toLane="0"/>
    <connection from="-1107401573#0" to="-1163555413#1" fromLane="0" toLane="0"/>
    <connection from="-1107401573#0" to="1107401573#0" fromLane="0" toLane="0"/>

    <connection from="-1107401573#1" to="-1107401573#0" fromLane="0" toLane="0"/>
    <connection from="-1107401573#1" to="-60633939#1" fromLane="0" toLane="0"/>
    <connection from="-1107401573#1" to="1107401573#1" fromLane="0" toLane="0"/>

    <connection from="-1107401573#2" to="-1107401573#1" fromLane="0" toLane="0"/>
    <connection from="-1107401573#2" to="1281447926" fromLane="0" toLane="0"/>

    <connection from="-1107401573#3" to="-1107401573#2" fromLane="0" toLane="0"/>
    <connection from="-1107401573#3" to="-60633870#1" fromLane="0" toLane="0"/>
    <connection from="-1107401573#3" to="1107401573#3" fromLane="0" toLane="0"/>

    <connection from="-1112772637#0" to="144915723#2" fromLane="0" toLane="0" visibility="9.00"/>

    <connection from="-1112772637#1" to="1115538230#1" fromLane="0" toLane="0"/>
    <connection from="-1112772637#1" to="-1112772637#0" fromLane="0" toLane="0"/>
    <connection from="-1112772637#1" to="-1115538230#0" fromLane="0" toLane="0"/>

    <connection from="-1112772637#3" to="-1112772637#1" fromLane="0" toLane="0"/>
    <connection from="-1112772637#3" to="-60994128" fromLane="0" toLane="0"/>
    <connection from="-1112772637#3" to="-501777566" fromLane="0" toLane="0"/>

    <connection from="-1112772637#4" to="1112772640" fromLane="0" toLane="0"/>
    <connection from="-1112772637#4" to="-1112772637#3" fromLane="0" toLane="0"/>

    <connection from="-1112772641" to="-1112772637#3" fromLane="0" toLane="0"/>
    <connection from="-1112772641" to="1112772637#4" fromLane="0" toLane="0"/>
    <connection from="-1112772641" to="1112772640" fromLane="0" toLane="0"/>

    <connection from="-1112772642" to="-837948303#4" fromLane="0" toLane="0"/>
    <connection from="-1112772642" to="837948303#5" fromLane="0" toLane="0"/>

    <connection from="-1112772643#0" to="-837948316#0" fromLane="0" toLane="0"/>
    <connection from="-1112772643#0" to="837963308#1" fromLane="0" toLane="0"/>
    <connection from="-1112772643#0" to="837948316#1" fromLane="0" toLane="0"/>
    <connection from="-1112772643#0" to="-837963308#0" fromLane="0" toLane="0"/>

    <connection from="-1112772645" to="-837963308#2" fromLane="0" toLane="0"/>
    <connection from="-1112772645" to="837963308#3" fromLane="0" toLane="0"/>

    <connection from="-1112772651#0" to="-179708449#0" fromLane="0" toLane="0"/>
    <connection from="-1112772651#0" to="179708449#1" fromLane="0" toLane="0"/>
    <connection from="-1112772651#0" to="1112772651#0" fromLane="0" toLane="0"/>

    <connection from="-1112772651#1" to="-1112772651#0" fromLane="0" toLane="0"/>
    <connection from="-1112772651#1" to="1112772652" fromLane="0" toLane="0"/>
    <connection from="-1112772651#1" to="1112772651#1" fromLane="0" toLane="0"/>

    <connection from="-1112772652" to="1112772651#1" fromLane="0" toLane="0"/>
    <connection from="-1112772652" to="-1112772651#0" fromLane="0" toLane="0"/>
    <connection from="-1112772652" to="1112772652" fromLane="0" toLane="0"/>

    <connection from="-1115192660#0" to="60994137#11" fromLane="0" toLane="0"/>
    <connection from="-1115192660#0" to="1115192660#0" fromLane="0" toLane="0"/>

    <connection from="-1115192660#1" to="-1115192660#0" fromLane="0" toLane="0"/>
    <connection from="-1115192660#1" to="1115192660#1" fromLane="0" toLane="0"/>

    <connection from="-1115192664" to="1115192665#1" fromLane="0" toLane="0"/>
    <connection from="-1115192664" to="-1115192666" fromLane="0" toLane="0"/>
    <connection from="-1115192664" to="-442892642#0" fromLane="0" toLane="0"/>
    <connection from="-1115192664" to="442892642#2" fromLane="0" toLane="0"/>
    <connection from="-1115192664" to="1115192664" fromLane="0" toLane="0"/>

    <connection from="-1115192665#1" to="-1115192666" fromLane="0" toLane="0"/>
    <connection from="-1115192665#1" to="-442892642#0" fromLane="0" toLane="0"/>
    <connection from="-1115192665#1" to="442892642#2" fromLane="0" toLane="0"/>
    <connection from="-1115192665#1" to="1115192664" fromLane="0" toLane="0"/>
    <connection from="-1115192665#1" to="1115192665#1" fromLane="0" toLane="0"/>

    <connection from="-1115192666" to="-442892642#6" fromLane="0" toLane="0"/>
    <connection from="-1115192666" to="442892642#7" fromLane="0" toLane="0"/>
    <connection from="-1115192666" to="1115192666" fromLane="0" toLane="0"/>

    <connection from="-1115192668#0" to="-550891082#6" fromLane="0" toLane="0"/>
    <connection from="-1115192668#0" to="550891082#7" fromLane="0" toLane="0"/>
    <connection from="-1115192668#0" to="1115192668#0" fromLane="0" toLane="0"/>

    <connection from="-1115192668#1" to="-1115192668#0" fromLane="0" toLane="0"/>
    <connection from="-1115192668#1" to="1115192670" fromLane="0" toLane="0"/>
    <connection from="-1115192668#1" to="1115192668#1" fromLane="0" toLane="0"/>

    <connection from="-1115192670" to="1115192668#1" fromLane="0" toLane="0"/>
    <connection from="-1115192670" to="-1115192668#0" fromLane="0" toLane="0"/>
    <connection from="-1115192670" to="1115192670" fromLane="0" toLane="0"/>

    <connection from="-1115192671" to="-374369660#0" fromLane="0" toLane="0"/>
    <connection from="-1115192671" to="23735155#3" fromLane="0" toLane="0"/>
    <connection from="-1115192671" to="-60681222#4" fromLane="0" toLane="0"/>
    <connection from="-1115192671" to="23735158#3" fromLane="0" toLane="1"/>
    <connection from="-1115192671" to="374369660#1" fromLane="0" toLane="0"/>

    <connection from="-1115192672#0" to="-1115192671" fromLane="0" toLane="0"/>
    <connection from="-1115192672#0" to="1115192672#0" fromLane="0" toLane="0"/>

    <connection from="-1115192672#2" to="560656086#1" fromLane="0" toLane="0"/>
    <connection from="-1115192672#2" to="-1115192672#0" fromLane="0" toLane="0"/>
    <connection from="-1115192672#2" to="23735155#1" fromLane="0" toLane="1"/>
    <connection from="-1115192672#2" to="1115192672#2" fromLane="0" toLane="0"/>

    <connection from="-1115192673#1" to="1156038394" fromLane="0" toLane="0"/>
    <connection from="-1115192673#1" to="-1115533821#4" fromLane="0" toLane="0"/>
    <connection from="-1115192673#1" to="1115192673#1" fromLane="0" toLane="0"/>

    <connection from="-1115192673#2" to="-1115192673#1" fromLane="0" toLane="0"/>
    <connection from="-1115192673#2" to="1115192673#2" fromLane="0" toLane="0"/>

    <connection from="-1115192674#0" to="-1115192675#1" fromLane="0" toLane="0"/>
    <connection from="-1115192674#0" to="1115192675#2" fromLane="0" toLane="0"/>

    <connection from="-1115192674#1" to="-1115192674#0" fromLane="0" toLane="0"/>
    <connection from="-1115192674#1" to="23735158#1" fromLane="0" toLane="1"/>
    <connection from="-1115192674#1" to="1115192674#1" fromLane="0" toLane="0"/>

    <connection from="-1115192675#0" to="144915719#1" fromLane="0" toLane="0"/>
    <connection from="-1115192675#0" to="-1115192676#0" fromLane="0" toLane="0"/>
    <connection from="-1115192675#0" to="144915717#1" fromLane="0" toLane="0"/>
    <connection from="-1115192675#0" to="1115192676#2" fromLane="0" toLane="0"/>

    <connection from="-1115192675#1" to="-1115192675#0" fromLane="0" toLane="0"/>
    <connection from="-1115192675#1" to="1115192675#1" fromLane="0" toLane="0"/>

    <connection from="-1115192676#0" to="-1115192673#2" fromLane="0" toLane="0"/>
    <connection from="-1115192676#0" to="1115192676#0" fromLane="0" toLane="0"/>

    <connection from="-1115216864" to="-1115533820" fromLane="0" toLane="0"/>
    <connection from="-1115216864" to="-1115533819" fromLane="0" toLane="0"/>
    <connection from="-1115216864" to="1307424354" fromLane="0" toLane="0"/>
    <connection from="-1115216864" to="1115216864" fromLane="0" toLane="0"/>

    <connection from="-1115228754#1" to="-751382896#0" fromLane="0" toLane="0"/>
    <connection from="-1115228754#1" to="751382896#1" fromLane="0" toLane="0"/>
    <connection from="-1115228754#1" to="23734979#1" fromLane="0" toLane="0"/>
    <connection from="-1115228754#1" to="1115228754#1" fromLane="0" toLane="0"/>

    <connection from="-1115262099" to="-36870716#0" fromLane="0" toLane="0"/>
    <connection from="-1115262099" to="36870716#1" fromLane="0" toLane="0"/>
    <connection from="-1115262099" to="1115262099" fromLane="0" toLane="0"/>

    <connection from="-1115533814#0" to="-1156038396" fromLane="0" toLane="0"/>
    <connection from="-1115533814#0" to="-576752974" fromLane="0" toLane="0"/>
    <connection from="-1115533814#0" to="1115533814#0" fromLane="0" toLane="0"/>

    <connection from="-1115533814#1" to="-1115533814#0" fromLane="0" toLane="0"/>
    <connection from="-1115533814#1" to="1115533814#1" fromLane="0" toLane="0"/>

    <connection from="-1115533815" to="-1115533814#1" fromLane="0" toLane="0"/>
    <connection from="-1115533815" to="1115533815" fromLane="0" toLane="0"/>

    <connection from="-1115533817#0" to="-576784139#0" fromLane="0" toLane="0"/>
    <connection from="-1115533817#0" to="23735160#1" fromLane="0" toLane="0"/>
    <connection from="-1115533817#0" to="576784139#2" fromLane="0" toLane="0"/>
    <connection from="-1115533817#0" to="-1115533821#2" fromLane="0" toLane="0"/>
    <connection from="-1115533817#0" to="-150118051#0" fromLane="0" toLane="0"/>
    <connection from="-1115533817#0" to="1115533821#3" fromLane="0" toLane="0"/>
    <connection from="-1115533817#0" to="-150118049#0" fromLane="0" toLane="0"/>
    <connection from="-1115533817#0" to="1164554899#1" fromLane="0" toLane="1"/>
    <connection from="-1115533817#0" to="150118049#2" fromLane="0" toLane="0"/>
    <connection from="-1115533817#0" to="-1115533818#0" fromLane="0" toLane="0"/>
    <connection from="-1115533817#0" to="60994137#1" fromLane="0" toLane="0"/>
    <connection from="-1115533817#0" to="1115533818#2" fromLane="0" toLane="0"/>

    <connection from="-1115533817#1" to="576784139#0" fromLane="0" toLane="0"/>
    <connection from="-1115533817#1" to="-1115533817#0" fromLane="0" toLane="0"/>
    <connection from="-1115533817#1" to="1115533817#1" fromLane="0" toLane="0"/>

    <connection from="-1115533818#0" to="-150118049#2" fromLane="0" toLane="0"/>
    <connection from="-1115533818#0" to="-66622761#0" fromLane="0" toLane="0"/>
    <connection from="-1115533818#0" to="66622761#1" fromLane="0" toLane="0"/>

    <connection from="-1115533819" to="23735160#4" fromLane="0" toLane="0"/>
    <connection from="-1115533819" to="1115533819" fromLane="0" toLane="0"/>

    <connection from="-1115533820" to="23735160#5" fromLane="0" toLane="0"/>
    <connection from="-1115533820" to="-150117471#1" fromLane="0" toLane="0"/>
    <connection from="-1115533820" to="150117471#2" fromLane="0" toLane="0"/>

    <connection from="-1115533821#0" to="150117471#0" fromLane="0" toLane="0"/>
    <connection from="-1115533821#0" to="-1115533822" fromLane="0" toLane="0"/>
    <connection from="-1115533821#0" to="1115533821#0" fromLane="0" toLane="0"/>

    <connection from="-1115533821#1" to="-1115533821#0" fromLane="0" toLane="0"/>
    <connection from="-1115533821#1" to="1115533821#1" fromLane="0" toLane="0"/>

    <connection from="-1115533821#2" to="-576784139#2" fromLane="0" toLane="0"/>
    <connection from="-1115533821#2" to="-1115533821#1" fromLane="0" toLane="0"/>
    <connection from="-1115533821#2" to="1115533821#2" fromLane="0" toLane="0"/>

    <connection from="-1115533821#3" to="-150118049#0" fromLane="0" toLane="0"/>
    <connection from="-1115533821#3" to="1164554899#1" fromLane="0" toLane="0"/>
    <connection from="-1115533821#3" to="150118049#2" fromLane="0" toLane="0"/>
    <connection from="-1115533821#3" to="-1115533818#0" fromLane="0" toLane="0"/>
    <connection from="-1115533821#3" to="60994137#1" fromLane="0" toLane="0"/>
    <connection from="-1115533821#3" to="1115533818#2" fromLane="0" toLane="0"/>
    <connection from="-1115533821#3" to="-576784139#0" fromLane="0" toLane="0"/>
    <connection from="-1115533821#3" to="23735160#1" fromLane="0" toLane="1"/>
    <connection from="-1115533821#3" to="576784139#2" fromLane="0" toLane="0"/>
    <connection from="-1115533821#3" to="-1115533821#2" fromLane="0" toLane="0"/>
    <connection from="-1115533821#3" to="-150118051#0" fromLane="0" toLane="0"/>
    <connection from="-1115533821#3" to="1115533821#3" fromLane="0" toLane="0"/>

    <connection from="-1115533821#4" to="150118049#0" fromLane="0" toLane="0"/>
    <connection from="-1115533821#4" to="-1115533821#3" fromLane="0" toLane="0"/>
    <connection from="-1115533821#4" to="1115533821#4" fromLane="0" toLane="0"/>

    <connection from="-1115533822" to="-1156038393" fromLane="0" toLane="0"/>
    <connection from="-1115533822" to="60681187#1" fromLane="0" toLane="0"/>
    <connection from="-1115533822" to="1115533823#1" fromLane="0" toLane="0"/>

    <connection from="-1115533825#0" to="1156823482#1" fromLane="0" toLane="0"/>
    <connection from="-1115533825#0" to="-1115216864" fromLane="0" toLane="0"/>
    <connection from="-1115533825#0" to="-60994135#7" fromLane="0" toLane="0"/>
    <connection from="-1115533825#0" to="1115216865#2" fromLane="0" toLane="0"/>

    <connection from="-1115533825#1" to="150117473#0" fromLane="0" toLane="0"/>
    <connection from="-1115533825#1" to="-1115533825#0" fromLane="0" toLane="0"/>
    <connection from="-1115533825#1" to="1115533825#1" fromLane="0" toLane="0"/>

    <connection from="-1115533825#2" to="-1115533825#1" fromLane="0" toLane="0"/>
    <connection from="-1115533825#2" to="60994152#1" fromLane="0" toLane="0"/>
    <connection from="-1115533825#2" to="1115533825#2" fromLane="0" toLane="0"/>

    <connection from="-1115533826#0" to="-150117475#2" fromLane="0" toLane="0"/>
    <connection from="-1115533826#0" to="-1115533825#2" fromLane="0" toLane="0"/>
    <connection from="-1115533826#0" to="1115533825#3" fromLane="0" toLane="0"/>

    <connection from="-1115538227#0" to="60681203#4" fromLane="0" toLane="0"/>
    <connection from="-1115538227#0" to="-1115538228#1" fromLane="0" toLane="0"/>
    <connection from="-1115538227#0" to="1115538228#2" fromLane="0" toLane="0"/>

    <connection from="-1115538227#1" to="-1115538227#0" fromLane="0" toLane="0"/>
    <connection from="-1115538227#1" to="1115538227#1" fromLane="0" toLane="0"/>

    <connection from="-1115538227#2" to="150118048#0" fromLane="0" toLane="0"/>
    <connection from="-1115538227#2" to="-1115538227#1" fromLane="0" toLane="0"/>
    <connection from="-1115538227#2" to="1115538227#2" fromLane="0" toLane="0"/>

    <connection from="-1115538227#3" to="150117475#0" fromLane="0" toLane="0"/>
    <connection from="-1115538227#3" to="-1115538227#2" fromLane="0" toLane="0"/>
    <connection from="-1115538227#3" to="1115538227#3" fromLane="0" toLane="0"/>

    <connection from="-1115538228#0" to="-1115538231#1" fromLane="0" toLane="0"/>
    <connection from="-1115538228#0" to="150121380#0" fromLane="0" toLane="0"/>
    <connection from="-1115538228#0" to="1115538231#2" fromLane="0" toLane="0"/>

    <connection from="-1115538228#1" to="-1115538228#0" fromLane="0" toLane="0"/>
    <connection from="-1115538228#1" to="60994235#1" fromLane="0" toLane="0"/>
    <connection from="-1115538228#1" to="1115538228#1" fromLane="0" toLane="0"/>

    <connection from="-1115538229#0" to="144915713#4" fromLane="0" toLane="0"/>
    <connection from="-1115538229#0" to="-60994153#0" fromLane="0" toLane="0"/>
    <connection from="-1115538229#0" to="-1115533826#0" fromLane="0" toLane="0"/>
    <connection from="-1115538229#0" to="60994153#2" fromLane="0" toLane="0"/>
    <connection from="-1115538229#0" to="1115533826#1" fromLane="0" toLane="0"/>
