<?xml version="1.0" encoding="UTF-8"?>

<!-- generated on 2025-04-04 16:23:08 by Eclipse SUMO netconvert Version 1.19.0
<configuration xmlns:xsi="http://www.w3.org/2001/XMLSchema-instance" xsi:noNamespaceSchemaLocation="http://sumo.dlr.de/xsd/netconvertConfiguration.xsd">

    <input>
        <sumo-net-file value="rambouillet/rambouillet.net.xml"/>
    </input>

    <output>
        <plain-output-prefix value="rambouillet/rambouillet"/>
    </output>

    <processing>
        <geometry.min-radius.fix.railways value="false"/>
        <geometry.max-grade.fix value="false"/>
        <offset.disable-normalization value="true"/>
        <lefthand value="0"/>
    </processing>

    <tls_building>
        <tls.ignore-internal-junction-jam value="1"/>
    </tls_building>

    <junctions>
        <no-turnarounds value="true"/>
        <junctions.corner-detail value="5"/>
        <junctions.limit-turn-speed value="5.50"/>
        <rectangular-lane-cut value="0"/>
    </junctions>

    <pedestrian>
        <walkingareas value="0"/>
    </pedestrian>

</configuration>
-->

<nodes version="1.16" xmlns:xsi="http://www.w3.org/2001/XMLSchema-instance" xsi:noNamespaceSchemaLocation="http://sumo.dlr.de/xsd/nodes_file.xsd">
    <location netOffset="-408868.12,-5382891.46" convBoundary="0.00,0.00,12149.70,10087.37" origBoundary="1.763279,48.593008,1.928344,48.684126" projParameter="+proj=utm +zone=31 +ellps=WGS84 +datum=WGS84 +units=m +no_defs"/>

    <node id="10039090221" x="2341.67" y="5252.90" type="priority"/>
    <node id="10039090225" x="2184.85" y="5372.78" type="priority"/>
    <node id="10039090230" x="2275.21" y="5156.35" type="priority"/>
    <node id="10039090232" x="2311.91" y="5202.15" type="priority"/>
    <node id="10039090346" x="2326.62" y="5275.01" type="priority"/>
    <node id="10039090349" x="2508.44" y="5330.72" type="priority"/>
    <node id="10039090357" x="2536.19" y="5269.96" type="priority"/>
    <node id="10039090367" x="2433.73" y="5376.53" type="priority"/>
    <node id="10039090374" x="2560.75" y="5397.87" type="priority"/>
    <node id="10094657887" x="4786.97" y="3441.98" type="priority"/>
    <node id="10098343461" x="4097.58" y="6365.60" type="dead_end"/>
    <node id="10098343465" x="4080.49" y="6371.82" type="dead_end"/>
    <node id="10118571203" x="6233.39" y="5785.90" type="right_before_left"/>
    <node id="10118571205" x="6219.94" y="5767.09" type="priority"/>
    <node id="10118571210" x="6230.34" y="5784.04" type="right_before_left"/>
    <node id="10130645100" x="4866.29" y="5455.43" type="priority"/>
    <node id="10130645103" x="4868.50" y="5502.46" type="priority"/>
    <node id="10130645104" x="4813.17" y="5406.88" type="priority"/>
    <node id="10130645108" x="4848.23" y="5501.91" type="priority"/>
    <node id="10130645114" x="5045.66" y="5617.66" type="dead_end"/>
    <node id="10130702421" x="5096.65" y="5623.90" type="dead_end"/>
    <node id="10130702422" x="5105.35" y="5614.20" type="dead_end"/>
    <node id="10130702425" x="5089.46" y="5618.13" type="dead_end"/>
    <node id="10130702440" x="5000.98" y="5671.19" type="dead_end"/>
    <node id="10130702442" x="4986.56" y="5664.58" type="dead_end"/>
    <node id="10130702447" x="4992.40" y="5714.77" type="dead_end"/>
    <node id="10130702459" x="5009.21" y="5685.35" type="dead_end"/>
    <node id="10130702487" x="5134.86" y="5605.10" type="dead_end"/>
    <node id="10130702488" x="5098.92" y="5565.09" type="dead_end"/>
    <node id="10130702494" x="5126.29" y="5597.72" type="dead_end"/>
    <node id="10130702519" x="5129.68" y="5613.25" type="dead_end"/>
    <node id="10130702522" x="5138.46" y="5601.24" type="dead_end"/>
    <node id="10130702531" x="5046.91" y="5522.73" type="priority"/>
    <node id="10130702532" x="5049.20" y="5533.12" type="dead_end"/>
    <node id="10130702533" x="5046.03" y="5529.47" type="dead_end"/>
    <node id="10130702555" x="5335.27" y="5695.08" type="priority"/>
    <node id="10130702556" x="5326.04" y="5696.52" type="dead_end"/>
    <node id="10130702558" x="5331.74" y="5671.56" type="priority"/>
    <node id="10130702559" x="5321.89" y="5673.33" type="dead_end"/>
    <node id="10130702561" x="5313.38" y="5672.71" type="priority"/>
    <node id="10130702576" x="5000.12" y="5583.08" type="priority"/>
    <node id="10130702578" x="5051.51" y="5623.31" type="dead_end"/>
    <node id="10130702582" x="5039.88" y="5635.61" type="dead_end"/>
    <node id="10130702604" x="5052.49" y="5641.58" type="dead_end"/>
    <node id="10130702608" x="5055.97" y="5636.74" type="dead_end"/>
    <node id="10130702639" x="5083.70" y="5629.13" type="dead_end"/>
    <node id="10130702667" x="5097.76" y="5622.65" type="dead_end"/>
    <node id="10130702668" x="5098.32" y="5622.05" type="dead_end"/>
    <node id="10130702680" x="5095.61" y="5640.05" type="dead_end"/>
    <node id="10130702686" x="5079.25" y="5622.00" type="priority"/>
    <node id="10130702688" x="5133.48" y="5636.33" type="dead_end"/>
    <node id="10130702700" x="5115.87" y="5642.04" type="dead_end"/>
    <node id="10130702701" x="5127.73" y="5652.22" type="dead_end"/>
    <node id="10130702702" x="5117.93" y="5643.81" type="dead_end"/>
    <node id="10130702724" x="5100.08" y="5627.03" type="dead_end"/>
    <node id="10130702744" x="5106.15" y="5614.78" type="dead_end"/>
    <node id="10130702746" x="5085.34" y="5625.86" type="dead_end"/>
    <node id="10130702748" x="5084.59" y="5629.94" type="dead_end"/>
    <node id="10130702752" x="5092.01" y="5640.62" type="dead_end"/>
    <node id="10130702761" x="5131.69" y="5634.71" type="dead_end"/>
    <node id="10137687986" x="4696.72" y="4017.26" type="priority"/>
    <node id="10137687987" x="4682.71" y="4029.81" type="priority"/>
    <node id="10137687996" x="4752.73" y="4084.45" type="priority"/>
    <node id="10171829399" x="4525.17" y="6330.07" type="priority"/>
    <node id="10173547373" x="4915.96" y="5425.47" type="priority"/>
    <node id="10173984360" x="5504.50" y="8080.64" type="priority"/>
    <node id="10174275753" x="4996.65" y="5902.36" type="right_before_left"/>
    <node id="10197520980" x="3976.53" y="5064.43" type="right_before_left"/>
    <node id="10197520981" x="3969.17" y="5076.03" type="right_before_left"/>
    <node id="10197546010" x="4177.82" y="5979.50" type="priority"/>
    <node id="10197556417" x="4215.23" y="6685.12" type="priority"/>
    <node id="10197556420" x="4187.22" y="6686.76" type="priority"/>
    <node id="10204967710" x="7358.19" y="6080.15" type="priority"/>
    <node id="10204967747" x="6960.25" y="6397.58" type="priority"/>
    <node id="10204973998" x="6967.17" y="6156.33" type="dead_end"/>
    <node id="10204973999" x="6939.29" y="6155.48" type="dead_end"/>
    <node id="10204974000" x="6909.68" y="6153.80" type="dead_end"/>
    <node id="10204974005" x="6910.54" y="6133.51" type="dead_end"/>
    <node id="10204974006" x="6967.32" y="6159.67" type="dead_end"/>
    <node id="10204974007" x="6966.19" y="6137.47" type="dead_end"/>
    <node id="10207025568" x="7781.38" y="6394.40" type="dead_end"/>
    <node id="10207025768" x="7796.67" y="6395.29" type="dead_end"/>
    <node id="10207025769" x="7793.85" y="6400.92" type="dead_end"/>
    <node id="10207025770" x="7806.39" y="6399.81" type="dead_end"/>
    <node id="10207025772" x="7809.56" y="6379.09" type="dead_end"/>
    <node id="10207025773" x="7808.96" y="6394.38" type="dead_end"/>
    <node id="10207025774" x="7803.04" y="6391.56" type="dead_end"/>
    <node id="10207025775" x="7784.80" y="6389.77" type="dead_end"/>
    <node id="10207025777" x="7783.33" y="6382.68" type="dead_end"/>
    <node id="10207025781" x="7791.87" y="6364.64" type="dead_end"/>
    <node id="10207025784" x="7849.07" y="6509.19" type="priority"/>
    <node id="10207025792" x="7850.77" y="6482.73" type="dead_end"/>
    <node id="10207025793" x="7847.92" y="6534.90" type="dead_end"/>
    <node id="10207025795" x="7855.39" y="6535.72" type="dead_end"/>
    <node id="10207025796" x="7840.33" y="6533.01" type="dead_end"/>
    <node id="10219456751" x="6666.51" y="6320.77" type="priority"/>
    <node id="10219471981" x="5082.66" y="6665.11" type="priority"/>
    <node id="10308360293" x="4905.73" y="4031.58" type="priority"/>
    <node id="10308360294" x="4948.03" y="4011.18" type="priority"/>
    <node id="10308360295" x="4927.76" y="4011.73" type="right_before_left"/>
    <node id="10543065167" x="7415.33" y="6539.25" type="priority"/>
    <node id="10543065168" x="7431.65" y="6530.83" type="priority"/>
    <node id="105466098" x="5536.21" y="6038.78" type="priority"/>
    <node id="105469845" x="4953.63" y="3693.31" type="priority"/>
    <node id="105469850" x="5979.74" y="6062.63" type="priority"/>
    <node id="10591405536" x="4052.06" y="6389.88" type="dead_end"/>
    <node id="10591405537" x="4055.21" y="6375.68" type="dead_end"/>
    <node id="10599345364" x="6309.94" y="6086.81" type="priority"/>
    <node id="1076908131" x="5840.68" y="5710.19" type="priority"/>
    <node id="1076908134" x="5703.47" y="5572.73" type="priority"/>
    <node id="1076908135" x="5666.26" y="5617.75" type="priority"/>
    <node id="1076908145" x="5668.51" y="5619.52" type="priority"/>
    <node id="1076908153" x="5678.25" y="5599.51" type="priority"/>
    <node id="1077122690" x="4133.54" y="5821.02" type="right_before_left"/>
    <node id="1077122749" x="4182.21" y="5821.32" type="priority"/>
    <node id="1077122756" x="4197.33" y="5762.10" type="right_before_left"/>
    <node id="1077122758" x="4174.32" y="5793.61" type="priority"/>
    <node id="1077122785" x="4134.72" y="5804.05" type="right_before_left"/>
    <node id="1077122787" x="4132.45" y="5836.82" type="priority"/>
    <node id="1077122830" x="4178.61" y="5808.01" type="priority"/>
    <node id="1077129224" x="4227.88" y="5830.25" type="priority"/>
    <node id="1077200135" x="3955.60" y="5868.80" type="dead_end"/>
    <node id="1077200165" x="3907.29" y="5873.73" type="dead_end"/>
    <node id="1077200197" x="3879.57" y="5835.35" type="dead_end"/>
    <node id="1077200206" x="3860.51" y="5946.35" type="dead_end"/>
    <node id="1077200302" x="4192.12" y="5763.54" type="priority"/>
    <node id="1077200323" x="4020.93" y="5792.69" type="dead_end"/>
    <node id="1077200328" x="3882.48" y="5957.07" type="dead_end"/>
    <node id="1077200335" x="3974.57" y="5819.23" type="dead_end"/>
    <node id="1077200356" x="3889.94" y="5849.37" type="dead_end"/>
    <node id="1077200369" x="4194.03" y="5724.78" type="dead_end"/>
    <node id="1077200408" x="3992.45" y="5753.53" type="dead_end"/>
    <node id="1077200449" x="4013.37" y="5872.62" type="dead_end"/>
    <node id="1077200516" x="3812.81" y="5884.72" type="dead_end"/>
    <node id="1077200677" x="3823.03" y="5898.47" type="dead_end"/>
    <node id="1077224153" x="3994.85" y="5811.72" type="dead_end"/>
    <node id="1077224160" x="3922.46" y="5985.48" type="dead_end"/>
    <node id="1077224166" x="3990.46" y="5839.68" type="dead_end"/>
    <node id="1077224169" x="3959.60" y="5797.74" type="dead_end"/>
    <node id="1077224175" x="3965.49" y="6078.46" type="dead_end"/>
    <node id="1077224178" x="4054.18" y="5768.32" type="dead_end"/>
    <node id="1077224182" x="4016.47" y="6130.53" type="priority"/>
    <node id="1077224196" x="4026.73" y="5727.92" type="dead_end"/>
    <node id="1077224212" x="4536.50" y="6051.98" type="right_before_left"/>
    <node id="1077224218" x="4414.42" y="6054.14" type="priority"/>
    <node id="1077224227" x="4037.44" y="5719.48" type="dead_end"/>
    <node id="1077224243" x="4502.53" y="5988.03" type="priority"/>
    <node id="1077224250" x="3896.09" y="5978.20" type="dead_end"/>
    <node id="1077224252" x="3841.60" y="5923.03" type="dead_end"/>
    <node id="1077224260" x="4082.68" y="5807.18" type="dead_end"/>
    <node id="1077224277" x="3983.81" y="5992.01" type="dead_end"/>
    <node id="1077224287" x="3949.93" y="5784.18" type="dead_end"/>
    <node id="1077224311" x="3995.03" y="5836.09" type="dead_end"/>
    <node id="1077224335" x="4057.43" y="5860.96" type="priority"/>
    <node id="1077224344" x="3994.76" y="5845.27" type="dead_end"/>
    <node id="1077224360" x="3924.57" y="5893.93" type="dead_end"/>
    <node id="1077224367" x="3922.50" y="5965.65" type="dead_end"/>
    <node id="1077224387" x="4539.64" y="5968.40" type="right_before_left"/>
    <node id="1077227591" x="5010.07" y="6160.69" type="right_before_left"/>
    <node id="1077227593" x="4960.74" y="6126.45" type="right_before_left"/>
    <node id="1077232750" x="4860.53" y="6506.22" type="priority"/>
    <node id="1077232751" x="4851.73" y="6508.41" type="priority"/>
    <node id="1077232753" x="4860.42" y="6511.59" type="priority"/>
    <node id="1077367881" x="4446.43" y="5727.06" type="priority"/>
    <node id="1079503540" x="4902.11" y="4269.96" type="priority"/>
    <node id="1079503545" x="4906.15" y="4259.72" type="priority"/>
    <node id="1079503548" x="4916.04" y="4273.63" type="priority"/>
    <node id="1079503553" x="4918.56" y="4264.92" type="priority"/>
    <node id="1079605332" x="5557.33" y="5464.72" type="priority"/>
    <node id="1079605338" x="5716.18" y="5455.24" type="priority"/>
    <node id="1079605342" x="5102.53" y="4866.43" type="priority"/>
    <node id="1079605368" x="4993.54" y="5499.59" type="priority"/>
    <node id="1079605372" x="5551.80" y="5600.27" type="priority"/>
    <node id="1079605381" x="5117.16" y="4851.44" type="priority"/>
    <node id="1079639639" x="5739.56" y="5479.58" type="priority"/>
    <node id="10844187273" x="5344.86" y="4686.05" type="priority"/>
    <node id="10844213313" x="5461.23" y="5031.12" type="priority"/>
    <node id="10904623372" x="6087.31" y="3650.16" type="right_before_left"/>
    <node id="10904623373" x="6121.81" y="3683.91" type="right_before_left"/>
    <node id="11059915062" x="6687.16" y="5730.32" type="priority"/>
    <node id="11107405073" x="6858.05" y="6647.16" type="right_before_left"/>
    <node id="11107405074" x="6837.75" y="6637.96" type="priority"/>
    <node id="11107444518" x="6031.02" y="6374.01" type="priority"/>
    <node id="11210443605" x="4794.44" y="5115.31" type="right_before_left"/>
    <node id="11210443606" x="4818.10" y="5109.85" type="priority" fringe="inner">
        <param key="buffer_stop" value="true"/>
    </node>
    <node id="11210443607" x="4818.78" y="5089.47" type="right_before_left"/>
    <node id="11210443608" x="4843.49" y="5083.59" type="priority" fringe="inner">
        <param key="buffer_stop" value="true"/>
    </node>
    <node id="11210443609" x="4789.95" y="5096.02" type="right_before_left"/>
    <node id="11210443610" x="4813.41" y="5090.65" type="priority" fringe="inner">
        <param key="buffer_stop" value="true"/>
    </node>
    <node id="11210443611" x="4774.57" y="5030.01" type="right_before_left"/>
    <node id="11210443612" x="4797.86" y="5023.60" type="priority" fringe="inner">
        <param key="buffer_stop" value="true"/>
    </node>
    <node id="11210443613" x="4802.21" y="5018.51" type="right_before_left"/>
    <node id="11210443614" x="4830.94" y="5012.00" type="right_before_left"/>
    <node id="11210443615" x="4789.21" y="4962.81" type="right_before_left"/>
    <node id="11210443616" x="4760.48" y="4969.55" type="right_before_left"/>
    <node id="11210443617" x="4817.70" y="4956.14" type="right_before_left"/>
    <node id="11210443618" x="4840.76" y="5053.89" type="right_before_left"/>
    <node id="11210443622" x="4783.31" y="5067.55" type="right_before_left"/>
    <node id="11210443623" x="4785.07" y="4945.02" type="right_before_left"/>
    <node id="11210443632" x="4812.06" y="5060.71" type="right_before_left"/>
    <node id="11210452041" x="4875.98" y="5136.69" type="right_before_left"/>
    <node id="11210452042" x="4885.47" y="5175.91" type="priority" fringe="inner">
        <param key="buffer_stop" value="true"/>
    </node>
    <node id="11210452043" x="4939.73" y="5121.78" type="priority"/>
    <node id="11210452045" x="4866.02" y="5180.25" type="priority" fringe="inner">
        <param key="buffer_stop" value="true"/>
    </node>
    <node id="11225506668" x="5916.09" y="7091.04" type="priority"/>
    <node id="112264489#1-AddedOnRampNode" x="4992.70" y="2719.92" type="priority"/>
    <node id="11330645023" x="4548.21" y="3290.96" type="priority"/>
    <node id="11330645026" x="4507.96" y="3237.65" type="right_before_left"/>
    <node id="11330645030" x="4492.54" y="3280.56" type="priority"/>
    <node id="11330645046" x="4612.28" y="3222.98" type="priority"/>
    <node id="11330645049" x="4589.07" y="3355.78" type="right_before_left"/>
    <node id="11330645050" x="4589.04" y="3320.77" type="priority"/>
    <node id="11330645053" x="4652.69" y="3346.47" type="priority"/>
    <node id="11330645054" x="4574.73" y="3311.54" type="priority"/>
    <node id="11330645067" x="4464.43" y="3355.21" type="priority"/>
    <node id="11330645570" x="4523.07" y="3303.87" type="priority"/>
    <node id="11333376958" x="2886.87" y="5935.21" type="priority"/>
    <node id="11333376965" x="2881.11" y="5895.77" type="dead_end"/>
    <node id="11333376966" x="2892.46" y="5915.84" type="dead_end"/>
    <node id="11333387169" x="2865.13" y="5840.47" type="priority"/>
    <node id="11333387171" x="2879.13" y="5882.42" type="right_before_left"/>
    <node id="11333387172" x="2860.86" y="5885.93" type="dead_end"/>
    <node id="11333387174" x="2731.68" y="5688.12" type="priority"/>
    <node id="114232593#1-AddedOffRampNode" x="5803.07" y="5617.53" type="priority"/>
    <node id="114232593#1-AddedOnRampNode" x="5587.07" y="5089.42" type="priority"/>
    <node id="1151441139" x="5504.80" y="7973.82" type="dead_end"/>
    <node id="1151441219" x="4477.34" y="8513.95" type="priority"/>
    <node id="1151441346" x="4182.15" y="8083.82" type="priority"/>
    <node id="1151441409" x="5488.80" y="7916.23" type="priority"/>
    <node id="1151441433" x="4937.50" y="8212.52" type="right_before_left"/>
    <node id="1151441718" x="5485.47" y="7820.54" type="priority"/>
    <node id="1151441890" x="5306.38" y="7806.60" type="priority"/>
    <node id="1151441989" x="4700.76" y="7893.86" type="right_before_left"/>
    <node id="116616595-AddedOnRampNode" x="4980.66" y="3130.27" type="priority"/>
    <node id="11967540197" x="8106.90" y="3753.50" type="priority"/>
    <node id="11967540233" x="7973.41" y="3674.53" type="right_before_left"/>
    <node id="11967540235" x="8006.68" y="3733.50" type="right_before_left"/>
    <node id="11967540240" x="8054.75" y="3829.36" type="right_before_left"/>
    <node id="11968218261" x="8053.43" y="3559.55" type="right_before_left"/>
    <node id="11987219670" x="4333.85" y="6442.82" type="priority"/>
    <node id="11987219680" x="4343.96" y="6495.55" type="dead_end"/>
    <node id="11987219681" x="4348.17" y="6498.79" type="dead_end"/>
    <node id="11987219682" x="4356.20" y="6497.68" type="dead_end"/>
    <node id="11987219683" x="4371.77" y="6471.10" type="dead_end"/>
    <node id="11987219684" x="4366.15" y="6465.19" type="dead_end"/>
    <node id="11987219686" x="4349.53" y="6465.84" type="dead_end"/>
    <node id="11987219687" x="4346.64" y="6466.90" type="dead_end"/>
    <node id="11987219688" x="4350.78" y="6465.35" type="priority"/>
    <node id="11987219699" x="4343.36" y="6470.05" type="dead_end"/>
    <node id="11987230051" x="4602.77" y="6262.39" type="dead_end"/>
    <node id="11987230052" x="4605.50" y="6262.18" type="dead_end"/>
    <node id="11987230053" x="4612.30" y="6269.24" type="dead_end"/>
    <node id="11987230055" x="4604.05" y="6279.82" type="dead_end"/>
    <node id="11987230057" x="4600.18" y="6279.77" type="dead_end"/>
    <node id="11987230058" x="4531.85" y="6337.36" type="dead_end"/>
    <node id="11987230059" x="4498.87" y="6364.79" type="dead_end"/>
    <node id="11987230060" x="4440.86" y="6413.97" type="dead_end"/>
    <node id="11987230062" x="4594.68" y="6269.55" type="dead_end"/>
    <node id="11987230064" x="4593.78" y="6272.05" type="dead_end"/>
    <node id="11987230065" x="4488.93" y="6360.85" type="dead_end"/>
    <node id="11987230066" x="4434.48" y="6407.13" type="dead_end"/>
    <node id="11987693049" x="5003.17" y="5931.57" type="dead_end"/>
    <node id="11987693050" x="5006.88" y="5936.03" type="dead_end"/>
    <node id="11987693052" x="5004.59" y="5948.91" type="dead_end"/>
    <node id="11987693067" x="4989.78" y="5951.66" type="dead_end"/>
    <node id="11987705370" x="4993.04" y="5931.83" type="dead_end"/>
    <node id="11987705371" x="4982.46" y="5944.63" type="dead_end"/>
    <node id="11987705381" x="4856.43" y="6051.01" type="dead_end"/>
    <node id="11987705382" x="4862.41" y="6057.93" type="dead_end"/>
    <node id="11987705383" x="4869.04" y="6054.67" type="dead_end"/>
    <node id="11987705384" x="4874.82" y="6049.51" type="dead_end"/>
    <node id="11987705385" x="4870.46" y="6042.34" type="dead_end"/>
    <node id="11987705386" x="4875.11" y="6047.39" type="dead_end"/>
    <node id="11987705404" x="4739.62" y="6163.20" type="dead_end"/>
    <node id="11987705406" x="4740.28" y="6160.70" type="dead_end"/>
    <node id="11987705407" x="4734.22" y="6153.88" type="dead_end"/>
    <node id="11987705410" x="4728.08" y="6153.45" type="dead_end"/>
    <node id="11987705412" x="4728.83" y="6171.68" type="dead_end"/>
    <node id="11987705413" x="4721.07" y="6160.54" type="dead_end"/>
    <node id="11987705414" x="4721.62" y="6163.99" type="dead_end"/>
    <node id="11987904840" x="4998.11" y="5819.26" type="dead_end"/>
    <node id="11987904842" x="4982.95" y="5714.76" type="dead_end"/>
    <node id="11987904843" x="4988.21" y="5819.82" type="dead_end"/>
    <node id="11990993038" x="4556.87" y="6011.86" type="dead_end"/>
    <node id="11990993039" x="4570.04" y="6008.22" type="dead_end"/>
    <node id="11990993041" x="4574.80" y="6007.17" type="dead_end"/>
    <node id="11990993042" x="4581.43" y="6014.41" type="dead_end"/>
    <node id="11990993043" x="4581.77" y="6020.09" type="dead_end"/>
    <node id="11990993044" x="4574.38" y="6027.84" type="dead_end"/>
    <node id="11990993045" x="4644.04" y="5939.18" type="dead_end"/>
    <node id="11990993046" x="4649.80" y="5944.36" type="dead_end"/>
    <node id="11990993047" x="4695.45" y="5901.20" type="dead_end"/>
    <node id="11990993048" x="4690.99" y="5905.98" type="dead_end"/>
    <node id="11990993049" x="4687.87" y="5905.94" type="dead_end"/>
    <node id="11990993050" x="4682.21" y="5900.76" type="dead_end"/>
    <node id="11990993051" x="4689.12" y="5890.99" type="dead_end"/>
    <node id="11990993052" x="4683.01" y="5897.07" type="dead_end"/>
    <node id="11990993053" x="4692.33" y="5890.05" type="dead_end"/>
    <node id="11990993054" x="4697.59" y="5895.44" type="dead_end"/>
    <node id="11990993055" x="4823.37" y="5768.50" type="dead_end"/>
    <node id="11990993056" x="4817.17" y="5774.90" type="dead_end"/>
    <node id="11990993057" x="4823.66" y="5781.15" type="dead_end"/>
    <node id="11990993058" x="4829.21" y="5767.41" type="dead_end"/>
    <node id="11990993059" x="4833.68" y="5772.55" type="dead_end"/>
    <node id="11990993060" x="4871.73" y="5732.69" type="dead_end"/>
    <node id="11990993061" x="4876.96" y="5738.71" type="dead_end"/>
    <node id="11990993062" x="4936.26" y="5682.81" type="dead_end"/>
    <node id="11990993063" x="4941.04" y="5688.80" type="dead_end"/>
    <node id="12210481450" x="5143.56" y="6325.87" type="priority"/>
    <node id="12210481452" x="5129.07" y="6306.06" type="priority"/>
    <node id="12210481453" x="5150.94" y="6318.44" type="priority"/>
    <node id="12210481455" x="5132.44" y="6262.03" type="priority"/>
    <node id="12210481456" x="4685.96" y="6122.89" type="priority"/>
    <node id="12210481460" x="4714.15" y="6102.50" type="priority"/>
    <node id="12304596499" x="4301.02" y="6046.47" type="priority"/>
    <node id="12317445938" x="4719.27" y="3608.17" type="right_before_left"/>
    <node id="12330450900" x="6012.44" y="5637.24" type="priority"/>
    <node id="12330461901" x="6005.95" y="5595.08" type="priority"/>
    <node id="1238969805" x="4966.16" y="5663.64" type="traffic_light" tl="joinedS_1238969805_2258978080_2258978082_2258978088_#6more" controlledInner="216544747#0 577808463#1"/>
    <node id="1238969885" x="4996.02" y="5490.63" type="priority"/>
    <node id="1238969986" x="4986.83" y="5656.64" type="priority"/>
    <node id="1238969989" x="3957.59" y="4449.41" type="right_before_left"/>
    <node id="1240026960" x="6828.33" y="6787.31" type="priority"/>
    <node id="1240026989" x="8239.52" y="7872.10" type="priority"/>
    <node id="1240027006" x="7225.03" y="9766.81" type="priority"/>
    <node id="1240027028" x="6651.50" y="7961.76" type="right_before_left"/>
    <node id="1240027042" x="8717.51" y="6827.80" type="right_before_left"/>
    <node id="12563354882" x="4616.35" y="5387.74" type="priority"/>
    <node id="12580303041" x="4993.94" y="5714.77" type="dead_end"/>
    <node id="12580303076" x="5125.18" y="5595.70" type="priority"/>
    <node id="12580303077" x="5120.19" y="5590.36" type="priority"/>
    <node id="12580303078" x="5113.82" y="5583.89" type="priority"/>
    <node id="12580303079" x="5107.24" y="5578.00" type="priority"/>
    <node id="12580303080" x="5102.32" y="5572.41" type="priority"/>
    <node id="12580303081" x="5099.84" y="5567.34" type="priority"/>
    <node id="12580303083" x="5071.08" y="5617.54" type="dead_end"/>
    <node id="12580303095" x="6139.49" y="6880.41" type="priority"/>
    <node id="12580303096" x="6135.94" y="6879.62" type="priority"/>
    <node id="12580318202" x="6144.47" y="6872.71" type="priority"/>
    <node id="12580318235" x="6134.59" y="6870.73" type="priority"/>
    <node id="12580318236" x="6115.70" y="6883.04" type="priority"/>
    <node id="12580318240" x="6136.91" y="6868.28" type="priority"/>
    <node id="12580318246" x="6144.38" y="6874.56" type="priority"/>
    <node id="12592678594" x="5001.58" y="5691.13" type="right_before_left"/>
    <node id="12592678595" x="4935.15" y="5504.38" type="priority"/>
    <node id="12595651481" x="5471.24" y="5932.87" type="dead_end" fringe="inner">
        <param key="buffer_stop" value="true"/>
    </node>
    <node id="12595651492" x="5263.49" y="5732.16" type="priority"/>
    <node id="12648252771" x="5003.89" y="5640.72" type="priority"/>
    <node id="12698868898" x="4602.38" y="5371.97" type="priority"/>
    <node id="12698939373" x="4631.40" y="5533.46" type="priority"/>
    <node id="12698939376" x="4623.23" y="5546.36" type="priority"/>
    <node id="12698939385" x="4638.82" y="5542.73" type="priority"/>
    <node id="12698939386" x="4629.29" y="5550.24" type="priority"/>
    <node id="12698948810" x="4617.95" y="5370.80" type="priority"/>
    <node id="12699268992" x="4625.86" y="5382.10" type="right_before_left"/>
    <node id="12699284198" x="4610.32" y="5393.33" type="right_before_left"/>
    <node id="12699286508" x="4623.40" y="5530.37" type="right_before_left"/>
    <node id="12699291560" x="4638.80" y="5530.02" type="right_before_left"/>
    <node id="1276525955" x="4995.93" y="2492.73" type="dead_end"/>
    <node id="1276552082" x="3987.75" y="5747.97" type="dead_end"/>
    <node id="1276552090" x="3990.58" y="5745.79" type="dead_end"/>
    <node id="1276552106" x="4348.73" y="5489.03" type="right_before_left"/>
    <node id="1276552143" x="3984.69" y="5750.04" type="dead_end"/>
    <node id="1276552231" x="4359.11" y="5502.40" type="right_before_left"/>
    <node id="1276552261" x="4036.49" y="5741.82" type="dead_end"/>
    <node id="1276552282" x="3989.25" y="5750.06" type="dead_end"/>
    <node id="1276552312" x="4301.95" y="5470.35" type="right_before_left"/>
    <node id="1276552374" x="4050.66" y="5192.40" type="priority"/>
    <node id="1276552581" x="4408.15" y="5566.37" type="priority"/>
    <node id="1294337294" x="5624.80" y="4989.55" type="priority"/>
    <node id="1294337304" x="5616.29" y="4934.51" type="priority"/>
    <node id="1294337327" x="5461.11" y="5032.59" type="priority"/>
    <node id="1294337329" x="5570.31" y="5024.72" type="priority"/>
    <node id="1294337346" x="5558.66" y="4927.73" type="priority"/>
    <node id="1294337354" x="5513.09" y="4905.24" type="priority"/>
    <node id="1294337377" x="5528.95" y="4857.20" type="priority"/>
    <node id="1294382514" x="2476.36" y="6136.86" type="priority"/>
    <node id="1294382557" x="2511.21" y="7138.05" type="priority"/>
    <node id="1294382563" x="3164.57" y="6569.03" type="priority"/>
    <node id="1294382567" x="2982.75" y="7322.49" type="right_before_left"/>
    <node id="1294382568" x="3589.76" y="7033.25" type="priority"/>
    <node id="1294382570" x="2831.23" y="6085.26" type="priority"/>
    <node id="1294382574" x="3969.09" y="6853.42" type="right_before_left"/>
    <node id="1294382583" x="2274.18" y="7341.14" type="priority"/>
    <node id="1294382585" x="3994.53" y="6434.31" type="priority"/>
    <node id="1294382586" x="3933.31" y="7406.51" type="right_before_left"/>
    <node id="1294382587" x="2492.13" y="6629.69" type="priority"/>
    <node id="1294382602" x="2430.96" y="7760.99" type="right_before_left"/>
    <node id="1294408943" x="4176.96" y="5985.51" type="priority"/>
    <node id="1348015122" x="2299.97" y="8885.14" type="priority"/>
    <node id="1355419627" x="7016.15" y="7429.25" type="priority"/>
    <node id="1358124855" x="6943.45" y="5882.47" type="priority"/>
    <node id="1358124859" x="7000.44" y="6030.05" type="priority"/>
    <node id="1358124864" x="6900.73" y="5940.55" type="right_before_left"/>
    <node id="1358124874" x="6835.19" y="5946.76" type="priority"/>
    <node id="1358124876" x="6948.72" y="5997.51" type="priority"/>
    <node id="1358124880" x="6848.67" y="5863.91" type="right_before_left"/>
    <node id="1358124895" x="6832.44" y="5863.26" type="priority"/>