<?xml version="1.0" encoding="UTF-8"?>

<!-- generated on 2025-04-04 16:23:08 by Eclipse SUMO netconvert Version 1.19.0
<configuration xmlns:xsi="http://www.w3.org/2001/XMLSchema-instance" xsi:noNamespaceSchemaLocation="http://sumo.dlr.de/xsd/netconvertConfiguration.xsd">

    <input>
        <sumo-net-file value="rambouillet/rambouillet.net.xml"/>
    </input>

    <output>
        <plain-output-prefix value="rambouillet/rambouillet"/>
    </output>

    <processing>
        <geometry.min-radius.fix.railways value="false"/>
        <geometry.max-grade.fix value="false"/>
        <offset.disable-normalization value="true"/>
        <lefthand value="0"/>
    </processing>

    <tls_building>
        <tls.ignore-internal-junction-jam value="1"/>
    </tls_building>

    <junctions>
        <no-turnarounds value="true"/>
        <junctions.corner-detail value="5"/>
        <junctions.limit-turn-speed value="5.50"/>
        <rectangular-lane-cut value="0"/>
    </junctions>

    <pedestrian>
        <walkingareas value="0"/>
    </pedestrian>

</configuration>
-->

<edges version="1.16" xmlns:xsi="http://www.w3.org/2001/XMLSchema-instance" xsi:noNamespaceSchemaLocation="http://sumo.dlr.de/xsd/edges_file.xsd">
    <location netOffset="-408868.12,-5382891.46" convBoundary="0.00,0.00,12149.70,10087.37" origBoundary="1.763279,48.593008,1.928344,48.684126" projParameter="+proj=utm +zone=31 +ellps=WGS84 +datum=WGS84 +units=m +no_defs"/>

    <edge id="-1000594767#0" from="9236030665" to="9236030664" priority="1" type="highway.service" numLanes="1" speed="5.56" allow="pedestrian delivery bicycle"/>
    <edge id="-1000594767#1" from="9236030663" to="9236030665" priority="1" type="highway.service" numLanes="1" speed="5.56" allow="pedestrian delivery bicycle"/>
    <edge id="-1000594768" from="cluster_1877603358_9236030666" to="9236030668" priority="1" type="highway.service" numLanes="1" speed="5.56" shape="5149.56,4280.40 5142.99,4274.60 5095.81,4278.18" allow="pedestrian delivery bicycle"/>
    <edge id="-1000869272" from="9238593500" to="9238593508" priority="1" type="highway.service" numLanes="1" speed="5.56" shape="4078.18,4908.42 4070.63,4915.30 4066.30,4925.46 4063.80,4936.48 4063.58,4944.42 4060.92,4948.75 4056.66,4951.03 4050.06,4952.32 4038.09,4951.96" allow="pedestrian delivery bicycle"/>
    <edge id="-1006737124#0" from="9288187420" to="9288182806" priority="1" type="highway.service" numLanes="1" speed="5.56" shape="5484.86,4786.99 5477.35,4791.15 5469.19,4799.17" allow="pedestrian delivery bicycle"/>
    <edge id="-1006737124#1" from="9288187421" to="9288187420" priority="1" type="highway.service" numLanes="1" speed="5.56" shape="5522.87,4766.37 5515.72,4769.86 5484.86,4786.99" allow="pedestrian delivery bicycle"/>
    <edge id="-1006737124#2" from="9288182809" to="9288187421" priority="1" type="highway.service" numLanes="1" speed="5.56" shape="5586.11,4700.31 5577.82,4739.55 5522.87,4766.37" allow="pedestrian delivery bicycle"/>
    <edge id="-1006737124#3" from="9288182811" to="9288182809" priority="1" type="highway.service" numLanes="1" speed="5.56" shape="5644.70,4718.53 5634.57,4708.73 5586.11,4700.31" allow="pedestrian delivery bicycle"/>
    <edge id="-1006737125#0" from="9288187422" to="9288182809" priority="1" type="highway.service" numLanes="1" speed="5.56" shape="5495.23,4707.48 5537.26,4691.49 5586.11,4700.31" allow="pedestrian delivery bicycle"/>
    <edge id="-1006737125#1" from="9288187420" to="9288187422" priority="1" type="highway.service" numLanes="1" speed="5.56" shape="5484.86,4786.99 5464.44,4783.24 5452.97,4769.63 5435.07,4730.39 5495.23,4707.48" allow="pedestrian delivery bicycle"/>
    <edge id="-1006737126" from="9288187422" to="9288187421" priority="1" type="highway.service" numLanes="1" speed="5.56" allow="pedestrian delivery bicycle"/>
    <edge id="-1006807356" from="9288727382" to="9288727386" priority="1" type="highway.service" numLanes="1" speed="5.56" allow="pedestrian delivery bicycle"/>
    <edge id="-1006807358#0" from="9288727399" to="9288727389" priority="3" type="highway.residential" numLanes="1" speed="13.89" disallow="tram rail_urban rail rail_electric rail_fast ship"/>
    <edge id="-1006807358#1" from="9288727390" to="9288727399" priority="3" type="highway.residential" numLanes="1" speed="13.89" disallow="tram rail_urban rail rail_electric rail_fast ship"/>
    <edge id="-1006807359#0" from="9288727392" to="9288727390" priority="1" type="highway.service" numLanes="1" speed="5.56" shape="7944.72,7603.97 7918.60,7599.67 7913.35,7631.45" allow="pedestrian delivery bicycle"/>
    <edge id="-1006807359#1" from="9288727390" to="9288727392" priority="1" type="highway.service" numLanes="1" speed="5.56" shape="7913.35,7631.45 7939.47,7635.74 7944.72,7603.97" allow="pedestrian delivery bicycle"/>
    <edge id="-1006807360" from="9288727395" to="9288727390" priority="3" type="highway.residential" numLanes="1" speed="13.89" shape="7884.79,7643.17 7905.30,7630.95 7913.35,7631.45" disallow="tram rail_urban rail rail_electric rail_fast ship"/>
    <edge id="-1006807361#0" from="9288727400" to="7236725178" priority="3" type="highway.residential" numLanes="1" speed="13.89" shape="7835.65,7671.10 7827.77,7678.57 7820.71,7685.24" disallow="tram rail_urban rail rail_electric rail_fast ship"/>
    <edge id="-1006807361#1" from="9288727395" to="9288727400" priority="3" type="highway.residential" numLanes="1" speed="13.89" shape="7884.79,7643.17 7883.58,7639.21 7876.79,7632.39 7835.65,7671.10" disallow="tram rail_urban rail rail_electric rail_fast ship"/>
    <edge id="-1006807361#2" from="9288727398" to="9288727395" priority="3" type="highway.residential" numLanes="1" speed="13.89" disallow="tram rail_urban rail rail_electric rail_fast ship"/>
    <edge id="-1006807361#3" from="9288727399" to="9288727398" priority="3" type="highway.residential" numLanes="1" speed="13.89" shape="7903.87,7683.14 7898.57,7681.87 7878.74,7677.09" disallow="tram rail_urban rail rail_electric rail_fast ship"/>
    <edge id="-1006807362" from="9288727400" to="9288727398" priority="3" type="highway.residential" numLanes="1" speed="13.89" disallow="tram rail_urban rail rail_electric rail_fast ship"/>
    <edge id="-1006810196" from="9288784277" to="8431681062" priority="1" type="highway.service" numLanes="1" speed="8.33" allow="pedestrian delivery bicycle"/>
    <edge id="-1006810197" from="2258978117" to="7193143080" priority="3" type="highway.residential" numLanes="1" speed="13.89" disallow="tram rail_urban rail rail_electric rail_fast ship"/>
    <edge id="-1006810198" from="7193143080" to="248426574" priority="3" type="highway.residential" numLanes="1" speed="8.33" shape="5010.39,5689.18 5013.49,5687.69 5017.09,5685.12" disallow="tram rail_urban rail rail_electric rail_fast ship"/>
    <edge id="-1006810200#0" from="9288784286" to="5046503560" priority="1" type="highway.service" numLanes="1" speed="8.33" shape="5059.95,5702.59 5060.79,5717.48 5077.78,5734.46 5080.84,5737.61" allow="pedestrian delivery bicycle"/>
    <edge id="-1006810200#1" from="5046503558" to="9288784286" priority="1" type="highway.service" numLanes="1" speed="8.33" allow="pedestrian delivery bicycle"/>
    <edge id="-1006810202" from="9288784286" to="9288784278" priority="1" type="highway.service" numLanes="1" speed="8.33" allow="pedestrian delivery bicycle"/>
    <edge id="-1014903995" from="9362364176" to="2865077635" priority="11" type="highway.secondary" numLanes="1" speed="22.22" shape="5112.74,6813.57 5123.42,6870.28 5145.69,6961.97 5168.75,7023.39 5251.56,7187.91 5287.38,7256.71 5293.83,7268.84 5310.75,7300.67 5312.86,7309.03" disallow="tram rail_urban rail rail_electric rail_fast ship"/>
    <edge id="-1014903996#1" from="248426569" to="cluster_11987904836_5046503564" priority="11" type="highway.secondary" numLanes="1" speed="8.33" shape="4987.75,5714.77 4987.84,5716.37 4987.98,5718.61 4989.25,5738.61 4990.23,5754.52" disallow="tram rail_urban rail rail_electric rail_fast ship"/>
    <edge id="-1014906269" from="310907952" to="9362343458" priority="11" type="highway.secondary" numLanes="1" speed="19.44" disallow="tram rail_urban rail rail_electric rail_fast ship">
        <param key="ref" value="D 937"/>
    </edge>
    <edge id="-1014906270#0" from="cluster_3657862438_3657862447" to="cluster_1441095246_248426246" priority="11" type="highway.secondary" numLanes="1" speed="13.89" shape="4357.30,7127.86 4331.46,7109.28 4314.20,7094.03 4309.39,7088.94" disallow="tram rail_urban rail rail_electric rail_fast ship">
        <param key="ref" value="D 937"/>
    </edge>
    <edge id="-1014906270#1" from="9362343459" to="cluster_3657862438_3657862447" priority="11" type="highway.secondary" numLanes="1" speed="13.89" shape="4384.78,7147.85 4370.28,7137.19 4357.30,7127.86" disallow="tram rail_urban rail rail_electric rail_fast ship">
        <param key="ref" value="D 937"/>
    </edge>
    <edge id="-1014906273" from="9362343467" to="9362343464" priority="1" type="highway.service" numLanes="1" speed="5.56" shape="4255.92,7221.08 4262.42,7181.80 4270.46,7183.02 4286.47,7185.17" allow="pedestrian delivery bicycle"/>
    <edge id="-1014906274#0" from="9362343464" to="cluster_1441095246_248426246" priority="11" type="highway.secondary" numLanes="1" speed="13.89" shape="4286.47,7185.17 4289.89,7156.76 4293.08,7132.20 4298.55,7110.16 4303.78,7099.13 4309.39,7088.94" disallow="tram rail_urban rail rail_electric rail_fast ship">
        <param key="ref" value="D 936"/>
    </edge>
    <edge id="-1014906274#1" from="9362343468" to="9362343464" priority="11" type="highway.secondary" numLanes="1" speed="13.89" shape="4278.42,7244.64 4282.93,7214.55 4286.47,7185.17" disallow="tram rail_urban rail rail_electric rail_fast ship">
        <param key="ref" value="D 936"/>
    </edge>
    <edge id="-1014906275#0" from="cluster_437972851_441181753" to="9362343468" priority="11" type="highway.secondary" numLanes="1" speed="19.44" shape="3923.27,7577.34 3931.43,7571.94 4226.31,7376.93 4238.80,7364.84 4248.76,7351.13 4257.43,7337.44 4263.93,7322.60 4269.40,7304.86 4278.42,7244.64" disallow="tram rail_urban rail rail_electric rail_fast ship">
        <param key="ref" value="D 936"/>
    </edge>
    <edge id="-1014906275#1" from="9362343469" to="cluster_437972851_441181753" priority="11" type="highway.secondary" numLanes="1" speed="19.44" shape="3776.90,7680.30 3818.38,7652.50 3923.27,7577.34" disallow="tram rail_urban rail rail_electric rail_fast ship">
        <param key="ref" value="D 936"/>
    </edge>
    <edge id="-1015437769#0" from="cluster_1441095246_248426246" to="2258978443" priority="11" type="highway.secondary" numLanes="1" speed="13.89" shape="4305.02,7076.79 4303.90,7063.82" disallow="tram rail_urban rail rail_electric rail_fast ship">
        <param key="ref" value="D 936"/>
    </edge>
    <edge id="-1015437770#0" from="248426242" to="5308644254" priority="11" type="highway.secondary" numLanes="1" speed="8.33" disallow="tram rail_urban rail rail_electric rail_fast ship">
        <param key="ref" value="D 936"/>
    </edge>
    <edge id="-1015437770#1" from="2258978443" to="248426242" priority="11" type="highway.secondary" numLanes="1" speed="8.33" disallow="tram rail_urban rail rail_electric rail_fast ship">
        <param key="ref" value="D 936"/>
    </edge>
    <edge id="-1015437771" from="5308644254" to="248426239" priority="11" type="highway.secondary" numLanes="1" speed="8.33" shape="4307.06,6977.05 4307.17,6974.13 4307.56,6945.91" disallow="tram rail_urban rail rail_electric rail_fast ship">
        <param key="ref" value="D 936"/>
    </edge>
    <edge id="-1015896814#0" from="cluster_10171829400_2258978400_248426556" to="2258978401" priority="11" type="highway.secondary" numLanes="1" speed="8.33" shape="4350.18,6486.94 4351.50,6498.33" disallow="tram rail_urban rail rail_electric rail_fast ship"/>
    <edge id="-1015906257#0" from="1751662563" to="2258978398" priority="3" type="highway.residential" numLanes="1" speed="8.33" shape="5856.96,6434.08 5846.47,6437.03 5794.05,6458.38 5769.31,6466.88" disallow="tram rail_urban rail rail_electric rail_fast ship"/>
    <edge id="-1015906257#1" from="1751662511" to="1751662563" priority="3" type="highway.residential" numLanes="1" speed="8.33" shape="5910.77,6406.80 5898.00,6417.15 5891.83,6420.74 5883.43,6424.36 5874.07,6428.49 5856.96,6434.08" disallow="tram rail_urban rail rail_electric rail_fast ship"/>
    <edge id="-1015906258#0" from="2261588538" to="1751662503" priority="3" type="highway.residential" numLanes="1" speed="8.33" disallow="tram rail_urban rail rail_electric rail_fast ship"/>
    <edge id="-1015906258#1" from="2261588441" to="2261588538" priority="3" type="highway.residential" numLanes="1" speed="8.33" shape="5954.27,6394.69 5950.63,6395.54 5946.99,6396.41 5927.98,6403.24" disallow="tram rail_urban rail rail_electric rail_fast ship"/>
    <edge id="-1015906258#2" from="2258978381" to="2261588441" priority="3" type="highway.residential" numLanes="1" speed="8.33" shape="6031.19,6379.25 6010.46,6382.92 5954.27,6394.69" disallow="tram rail_urban rail rail_electric rail_fast ship"/>
    <edge id="-1015907231" from="1979551079" to="1979551063" priority="3" type="highway.residential" numLanes="1" speed="8.33" shape="5337.82,6258.15 5332.00,6252.35 5309.52,6229.23 5284.91,6205.78 5279.17,6200.52" disallow="tram rail_urban rail rail_electric rail_fast ship"/>
    <edge id="-1016248038" from="503137671" to="cluster_2259003896_2259003897_2259003898_2259003899_#1more" priority="3" type="highway.residential" numLanes="1" speed="8.33" shape="4982.74,6392.16 4968.10,6379.00 4854.87,6277.18 4736.92,6169.17 4735.33,6167.71" disallow="tram rail_urban rail rail_electric rail_fast ship"/>
    <edge id="-1018315144#0" from="3404461356" to="264654985" priority="3" type="highway.residential" numLanes="1" speed="8.33" shape="5136.43,6626.00 5131.37,6627.64 5076.63,6635.20" disallow="tram rail_urban rail rail_electric rail_fast ship"/>
    <edge id="-1018315144#1" from="3404461359" to="3404461356" priority="3" type="highway.residential" numLanes="1" speed="8.33" shape="5309.44,6679.69 5304.70,6682.08 5299.09,6683.04 5293.30,6682.54 5288.64,6680.29 5273.65,6667.99 5258.79,6657.11 5242.96,6650.38 5195.49,6636.64 5136.43,6626.00" disallow="tram rail_urban rail rail_electric rail_fast ship"/>
    <edge id="-1018315144#2" from="9392489379" to="3404461359" priority="3" type="highway.residential" numLanes="1" speed="8.33" shape="5319.63,6631.81 5318.62,6638.39 5313.34,6672.64 5311.86,6676.41 5309.44,6679.69" disallow="tram rail_urban rail rail_electric rail_fast ship"/>
    <edge id="-1022620048" from="1877496411" to="2460354026" priority="11" type="highway.secondary" numLanes="1" speed="8.33" shape="4973.24,5204.43 4964.76,5183.77 4958.35,5167.97 4951.93,5152.17" disallow="tram rail_urban rail rail_electric rail_fast ship"/>
    <edge id="-1022620049" from="2460354026" to="2460354024" priority="1" type="highway.service" numLanes="1" speed="8.33" allow="pedestrian delivery bicycle"/>
    <edge id="-1022916180" from="9433933553" to="4076039179" priority="1" type="highway.track" numLanes="1" speed="5.56" shape="2043.02,4704.66 2046.45,4708.10 2063.50,4712.36 2074.06,4704.45 2089.30,4686.56 2114.20,4660.02 2139.63,4638.16 2166.94,4624.60 2185.04,4620.80 2200.73,4622.74 2198.33,4616.39 2223.50,4610.21 2238.99,4607.25 2288.70,4583.98 2307.56,4571.99" allow="pedestrian motorcycle moped bicycle"/>
    <edge id="-1022916183" from="860274004" to="4254519908" priority="1" type="highway.track" numLanes="1" speed="5.56" shape="1442.64,4009.25 1430.48,4049.79 1427.48,4088.29 1432.87,4137.89 1409.15,4184.84 1365.39,4212.39 1252.33,4220.79 1211.57,4246.33 1209.94,4248.11 1203.86,4254.78 1175.88,4285.48 1099.32,4442.80 1020.47,4547.80 1003.80,4570.49 988.39,4597.13 979.47,4625.93 975.78,4651.13" allow="pedestrian motorcycle moped bicycle"/>
    <edge id="-1022916185#0" from="2240252579" to="cluster_2240252564_2283551470" priority="1" type="highway.track" numLanes="1" speed="5.56" shape="2777.25,5414.42 2785.45,5395.76 2789.55,5386.42 2799.58,5363.19" allow="pedestrian motorcycle moped bicycle"/>
    <edge id="-1022916185#1" from="2240252586" to="2240252579" priority="1" type="highway.track" numLanes="1" speed="5.56" shape="2763.72,5443.28 2766.78,5436.94 2777.25,5414.42" allow="pedestrian motorcycle moped bicycle"/>
    <edge id="-1024243567" from="9444810424" to="cluster_4139626107_4139626108" priority="12" type="highway.primary" numLanes="2" speed="13.89" shape="8018.82,6357.34 7997.91,6347.11 7973.73,6335.28" disallow="tram rail_urban rail rail_electric rail_fast ship">
        <param key="ref" value="D 906"/>
    </edge>
    <edge id="-1024368821" from="1751661686" to="9445871070" priority="7" type="highway.primary_link" numLanes="1" speed="13.89" disallow="tram rail_urban rail rail_electric rail_fast ship"/>
    <edge id="-1028466462#0" from="9481801454" to="cluster_3017600904_324965190_9481801444" priority="1" type="highway.service" numLanes="1" speed="5.56" shape="4511.14,3420.36 4524.83,3420.31" allow="pedestrian delivery bicycle"/>
    <edge id="-1028466462#1" from="9481801448" to="9481801454" priority="1" type="highway.service" numLanes="1" speed="5.56" shape="4490.29,3402.11 4490.26,3415.98 4495.76,3420.53 4511.14,3420.36" allow="pedestrian delivery bicycle"/>
    <edge id="-1028466462#2" from="9481801450" to="9481801448" priority="1" type="highway.service" numLanes="1" speed="5.56" allow="pedestrian delivery bicycle"/>
    <edge id="-1028466462#3" from="9481801452" to="9481801450" priority="1" type="highway.service" numLanes="1" speed="5.56" allow="pedestrian delivery bicycle"/>
    <edge id="-1028466462#4" from="9481801447" to="9481801452" priority="1" type="highway.service" numLanes="1" speed="5.56" allow="pedestrian delivery bicycle"/>
    <edge id="-1028466463" from="9481801449" to="9481801448" priority="1" type="highway.service" numLanes="1" speed="5.56" allow="pedestrian delivery bicycle"/>
    <edge id="-1028466464" from="9481801451" to="9481801450" priority="1" type="highway.service" numLanes="1" speed="5.56" allow="pedestrian delivery bicycle"/>
    <edge id="-1028466465" from="9481801453" to="9481801452" priority="1" type="highway.service" numLanes="1" speed="5.56" allow="pedestrian delivery bicycle"/>
    <edge id="-1030076337" from="6376310770" to="4517989586" priority="1" type="highway.path" numLanes="1" speed="5.56" shape="7153.90,5419.38 7122.92,5411.26 7112.77,5406.39 7103.51,5396.62 7092.60,5374.73 7055.49,5272.03 7039.33,5195.81 7004.68,5038.10 7003.16,5037.79 7000.42,5037.38 6999.43,5037.05 6989.80,4980.84 6984.14,4954.32 6989.65,4951.57 6990.14,4951.32" width="2.00" allow="pedestrian bicycle"/>
    <edge id="-1043477704" from="9603507613" to="1588687936" priority="1" type="highway.path" numLanes="1" speed="5.56" shape="3191.47,4476.01 3235.21,4506.24 3289.48,4561.08 3362.03,4628.19 3431.27,4698.72 3452.99,4713.98 3536.45,4791.63 3560.70,4811.15 3578.20,4831.37 3595.92,4858.72" width="2.00" allow="pedestrian bicycle"/>
    <edge id="-1060020740#0" from="cluster_2258978030_2258978033_9739083244" to="9739083246" priority="1" type="highway.service" numLanes="1" speed="8.33" shape="5102.58,5548.76 5093.28,5547.25 5055.98,5539.96 5050.26,5534.67" allow="pedestrian delivery bicycle"/>
    <edge id="-1060020740#1" from="9739083243" to="cluster_2258978030_2258978033_9739083244" priority="1" type="highway.service" numLanes="1" speed="8.33" shape="5116.81,5551.10 5108.30,5549.70 5102.58,5548.76" allow="pedestrian delivery bicycle"/>
    <edge id="-1065859940" from="1276552106" to="662441927" priority="1" type="highway.path" numLanes="1" speed="5.56" shape="4348.73,5489.03 4352.80,5480.79 4370.24,5451.53" width="2.00" allow="pedestrian bicycle"/>
    <edge id="-1066911907" from="cluster_2240252564_2283551470" to="2240252574" priority="1" type="highway.track" numLanes="1" speed="5.56" shape="2810.38,5358.00 2817.95,5359.25 2844.51,5364.25 2862.22,5365.25 2886.98,5362.69 2914.76,5357.33 2939.37,5354.63 2952.99,5353.18 2974.90,5348.50 2992.50,5349.02 3008.40,5355.07 3032.62,5360.19 3062.52,5371.77 3100.41,5380.93 3140.83,5387.39 3162.01,5389.52 3173.47,5389.24 3180.16,5390.33" allow="pedestrian motorcycle moped bicycle"/>
    <edge id="-1076006409" from="7770409451" to="7770427630" priority="1" type="highway.track" numLanes="1" speed="5.56" shape="8075.88,3513.30 8070.20,3436.90 8072.49,3404.54 8073.36,3382.44 8052.84,3332.29 8007.01,3280.93 8017.27,3181.46 8010.78,3161.81 8017.73,3096.27 8007.71,3052.43" allow="pedestrian motorcycle moped bicycle"/>
    <edge id="-1076006410#0" from="7770409458" to="9867751910" priority="1" type="highway.track" numLanes="1" speed="5.56" allow="pedestrian motorcycle moped bicycle"/>
    <edge id="-1076006410#1" from="11968218261" to="7770409458" priority="1" type="highway.track" numLanes="1" speed="5.56" allow="pedestrian motorcycle moped bicycle"/>
    <edge id="-1076006410#2" from="3828479631" to="11968218261" priority="1" type="highway.track" numLanes="1" speed="5.56" allow="pedestrian motorcycle moped bicycle"/>
    <edge id="-1076006437" from="cluster_11967540219_11967540232" to="cluster_9867792996_9867792997" priority="1" type="highway.path" numLanes="1" speed="5.56" shape="8029.42,3720.93 8039.65,3733.04 8047.83,3742.54 8061.05,3753.79 8083.57,3766.26 8099.90,3788.10" width="2.00" allow="pedestrian bicycle"/>
    <edge id="-1076006438#0" from="cluster_9867792996_9867792997" to="9867793001" priority="1" type="highway.path" numLanes="1" speed="5.56" shape="8099.90,3788.10 8078.47,3782.50 8064.77,3765.36 8031.41,3755.20 8014.75,3752.84 8007.54,3751.81" width="2.00" allow="pedestrian bicycle"/>
    <edge id="-1076006439#0" from="11967540233" to="7770408627" priority="1" type="highway.service" numLanes="1" speed="5.56" allow="pedestrian delivery bicycle"/>
    <edge id="-1076006439#1" from="cluster_11967540219_11967540232" to="11967540233" priority="1" type="highway.service" numLanes="1" speed="5.56" shape="8034.40,3717.11 8001.92,3671.98 7991.18,3669.03 7979.56,3670.83 7973.41,3674.53" allow="pedestrian delivery bicycle"/>
    <edge id="-1076006448" from="1422100193" to="9867793083" priority="1" type="highway.track" numLanes="1" speed="5.56" allow="pedestrian motorcycle moped bicycle"/>
    <edge id="-1076006449" from="3068409333" to="9867793085" priority="1" type="highway.track" numLanes="1" speed="5.56" shape="5989.21,3145.54 5844.17,3176.10 5760.63,3345.03" allow="pedestrian motorcycle moped bicycle"/>
    <edge id="-1076006450#0" from="4517989546" to="9867793087" priority="1" type="highway.track" numLanes="1" speed="5.56" allow="pedestrian motorcycle moped bicycle"/>
    <edge id="-1076006450#1" from="9867793086" to="4517989546" priority="1" type="highway.track" numLanes="1" speed="5.56" allow="pedestrian motorcycle moped bicycle"/>
    <edge id="-1076006451#0" from="4517989544" to="9867793089" priority="1" type="highway.track" numLanes="1" speed="5.56" allow="pedestrian motorcycle moped bicycle"/>
    <edge id="-1076006451#1" from="9867793088" to="4517989544" priority="1" type="highway.track" numLanes="1" speed="5.56" allow="pedestrian motorcycle moped bicycle"/>
    <edge id="-107880257" from="662441880" to="662441884" priority="1" type="highway.track" numLanes="1" speed="5.56" shape="1290.75,4743.01 1346.49,4726.55 1359.20,4724.81 1401.67,4717.02 1431.42,4714.42 1472.14,4709.53 1509.98,4708.94 1531.36,4713.28 1551.57,4713.00 1561.40,4717.33 1599.81,4723.40 1632.74,4726.00 1666.04,4729.64 1681.20,4727.91 1726.70,4716.52 1773.53,4696.78 1819.79,4669.15 1857.85,4659.25 1875.86,4659.39 1894.66,4660.87 1915.47,4664.77 1936.37,4671.55 1947.39,4675.45" allow="pedestrian motorcycle moped bicycle"/>
    <edge id="-108010123" from="1514112194" to="1515048205" priority="1" type="highway.track" numLanes="1" speed="5.56" shape="5795.45,7877.67 5802.17,7892.91 5941.03,8289.96 6084.90,8701.26 6192.07,9007.66 6218.69,9087.11 6354.39,9466.76 6448.91,9747.31 6522.01,9957.44 6543.63,9976.81 6583.22,10036.06 6596.00,10068.49 6600.71,10087.37" allow="pedestrian motorcycle moped bicycle"/>
    <edge id="-108010125" from="12580318236" to="258349361" priority="11" type="highway.secondary" numLanes="1" speed="13.89" shape="6115.70,6883.04 6008.38,6910.15 5963.45,6921.29 5942.13,6926.57 5907.22,6926.39 5865.48,6917.77" disallow="tram rail_urban rail rail_electric rail_fast ship">
        <param key="ref" value="D 27"/>
    </edge>
    <edge id="-108010127#0" from="1240027028" to="1240027006" priority="1" type="highway.track" numLanes="1" speed="5.56" shape="6651.50,7961.76 6730.97,8214.94 6775.55,8357.10 6859.50,8624.77 6982.53,9011.26 7104.82,9390.40 7225.03,9766.81" allow="pedestrian motorcycle moped bicycle"/>
    <edge id="-108010127#1" from="2624730672" to="1240027028" priority="1" type="highway.track" numLanes="1" speed="5.56" allow="pedestrian motorcycle moped bicycle"/>
    <edge id="-108010127#2" from="3226638612" to="2624730672" priority="1" type="highway.track" numLanes="1" speed="5.56" shape="6530.39,7577.61 6538.32,7604.20 6564.22,7689.05 6622.98,7865.39 6626.69,7877.92" allow="pedestrian motorcycle moped bicycle"/>
    <edge id="-108010135#2" from="cluster_2709223431_8129788948" to="cluster_4376091770_4376091780_4376091781" priority="4" type="highway.unclassified" numLanes="1" speed="13.89" shape="7069.35,7584.41 7093.87,7514.06 7107.87,7473.87 7109.02,7470.98" disallow="tram rail_urban rail rail_electric rail_fast ship"/>
    <edge id="-108010135#4" from="746692259" to="cluster_2709223431_8129788948" priority="4" type="highway.unclassified" numLanes="1" speed="13.89" shape="7058.77,7614.92 7067.15,7590.75" disallow="tram rail_urban rail rail_electric rail_fast ship"/>
    <edge id="-1090242461" from="9986131647" to="cluster_2283551539_9986131678_9986367025" priority="1" type="highway.service" numLanes="1" speed="5.56" shape="3937.11,6106.27 3933.37,6123.30" allow="pedestrian delivery bicycle"/>
    <edge id="-1090248718" from="9986205393" to="9986205400" priority="1" type="highway.service" numLanes="1" speed="5.56" shape="3897.49,6395.64 3893.82,6369.29 3885.97,6360.15 3883.91,6351.46 3883.42,6344.78 3885.72,6337.60 3888.56,6332.78 3893.52,6323.60" allow="pedestrian delivery bicycle"/>
    <edge id="-1090264865" from="9986365363" to="9986365368" priority="1" type="highway.path" numLanes="1" speed="5.56" shape="3429.97,6179.35 3431.17,6244.50 3427.82,6286.49 3425.82,6298.32 3423.94,6300.76" width="2.00" allow="pedestrian bicycle"/>
    <edge id="-1090264866#0" from="9986365368" to="9986205389" priority="1" type="highway.path" numLanes="1" speed="5.56" shape="3423.94,6300.76 3401.86,6303.05 3363.65,6305.11 3246.95,6304.93 3077.58,6302.68 3065.78,6302.07" width="2.00" allow="pedestrian bicycle"/>
    <edge id="-1090264866#1" from="9986365367" to="9986365368" priority="1" type="highway.path" numLanes="1" speed="5.56" width="2.00" allow="pedestrian bicycle"/>
    <edge id="-1090264888" from="9986366977" to="9986366990" priority="1" type="highway.service" numLanes="1" speed="5.56" shape="2429.91,5009.84 2441.31,4997.74 2432.45,4980.58 2437.50,4975.12 2445.97,4973.32 2457.76,4978.46 2471.77,4987.38 2505.11,5019.33 2518.30,5047.27 2520.97,5056.11 2521.70,5062.48 2519.20,5067.74 2491.38,5094.14 2484.84,5100.34 2477.04,5107.75" allow="pedestrian delivery bicycle"/>
    <edge id="-1090264889#0" from="9986366990" to="1588688094" priority="1" type="highway.service" numLanes="1" speed="5.56" shape="2477.04,5107.75 2471.70,5100.60 2445.07,5073.22 2423.99,5055.82 2402.98,5036.47 2395.50,5033.23 2386.63,5037.79 2371.36,5057.35 2364.76,5072.21" allow="pedestrian delivery bicycle"/>
    <edge id="-1090264889#1" from="9796615699" to="9986366990" priority="1" type="highway.service" numLanes="1" speed="5.56" shape="2492.16,5137.41 2480.07,5115.34 2477.04,5107.75" allow="pedestrian delivery bicycle"/>
    <edge id="-1090264890" from="1601191824" to="9986367023" priority="1" type="highway.path" numLanes="1" speed="5.56" shape="3405.35,5804.96 3425.43,5815.47 3430.69,5817.90 3434.27,5820.98 3442.42,5829.77 3452.66,5839.14 3463.96,5848.75 3473.66,5858.05 3483.84,5869.62 3487.36,5874.29 3503.68,5890.88 3509.70,5896.39 3514.83,5899.49 3525.15,5905.29 3531.88,5914.62 3538.59,5922.37 3547.42,5933.66 3580.79,5966.75 3598.64,5982.00 3608.86,5996.23 3614.37,6003.03 3625.39,6012.38" width="2.00" allow="pedestrian bicycle"/>
    <edge id="-1090264891#0" from="cluster_275554282_275554283" to="1601191824" priority="1" type="highway.path" numLanes="1" speed="5.56" shape="3834.59,6014.67 3822.93,5996.87 3776.12,5940.15 3758.94,5921.98 3742.99,5909.52 3724.71,5900.19 3710.82,5894.85 3405.35,5804.96" width="2.00" allow="pedestrian bicycle"/>
    <edge id="-1090264891#1" from="cluster_2283551539_9986131678_9986367025" to="cluster_275554282_275554283" priority="1" type="highway.path" numLanes="1" speed="5.56" shape="3918.91,6119.82 3911.87,6111.33 3891.79,6089.23 3871.70,6066.08 3834.59,6014.67" width="2.00" allow="pedestrian bicycle"/>
    <edge id="-1090264893" from="9986367049" to="9986367061" priority="1" type="highway.service" numLanes="1" speed="5.56" shape="3095.82,6133.11 3095.91,6139.94 3097.14,6145.04 3104.17,6147.48 3114.18,6147.41 3126.48,6148.19 3132.74,6152.06 3135.61,6160.22 3136.59,6171.86 3134.68,6275.91 3133.14,6279.37 3127.22,6279.91 3073.51,6279.07" allow="pedestrian delivery bicycle"/>
    <edge id="-1090278013" from="9986468514" to="9986479027" priority="1" type="highway.service" numLanes="1" speed="5.56" shape="2614.23,5990.40 2635.14,5980.63 2647.06,5965.77" allow="pedestrian delivery bicycle"/>