<?xml version="1.0" encoding="UTF-8"?>

<!-- generated on 2025-04-04 16:23:25 by Eclipse SUMO netconvert Version 1.19.0
<configuration xmlns:xsi="http://www.w3.org/2001/XMLSchema-instance" xsi:noNamespaceSchemaLocation="http://sumo.dlr.de/xsd/netconvertConfiguration.xsd">

    <input>
        <sumo-net-file value="nemours/nemours.net.xml"/>
    </input>

    <output>
        <plain-output-prefix value="nemours/nemours"/>
    </output>

    <processing>
        <geometry.min-radius.fix.railways value="false"/>
        <geometry.max-grade.fix value="false"/>
        <offset.disable-normalization value="true"/>
        <lefthand value="0"/>
    </processing>

    <tls_building>
        <tls.ignore-internal-junction-jam value="1"/>
    </tls_building>

    <junctions>
        <no-turnarounds value="true"/>
        <junctions.corner-detail value="5"/>
        <junctions.limit-turn-speed value="5.50"/>
        <rectangular-lane-cut value="0"/>
    </junctions>

    <pedestrian>
        <walkingareas value="0"/>
    </pedestrian>

</configuration>
-->

<edges version="1.16" xmlns:xsi="http://www.w3.org/2001/XMLSchema-instance" xsi:noNamespaceSchemaLocation="http://sumo.dlr.de/xsd/edges_file.xsd">
    <location netOffset="-470192.62,-5340701.09" convBoundary="0.00,0.00,12786.96,9104.74" origBoundary="2.598471,48.184141,2.770727,48.300901" projParameter="+proj=utm +zone=31 +ellps=WGS84 +datum=WGS84 +units=m +no_defs"/>

    <edge id="-1016218910#0" from="9373348848" to="1874824981" priority="1" type="highway.path" numLanes="1" speed="5.56" shape="7762.13,2461.49 7759.15,2465.97 7748.26,2491.34 7701.56,2586.11 7658.35,2682.12 7596.64,2802.25 7546.87,2880.24 7495.32,2955.95 7455.83,3013.43 7420.38,3071.55 7404.18,3110.98 7392.25,3152.22 7370.24,3229.58 7349.47,3305.67 7336.30,3349.60 7328.16,3396.05 7318.13,3489.10 7310.50,3573.31 7307.09,3605.52 7309.37,3630.56" width="2.00" allow="pedestrian bicycle"/>
    <edge id="-1016218910#1" from="2141680912" to="9373348848" priority="1" type="highway.path" numLanes="1" speed="5.56" shape="7799.91,2405.58 7795.94,2415.11 7777.97,2451.65 7775.25,2455.68 7770.48,2458.96 7766.36,2460.56 7762.13,2461.49" width="2.00" allow="pedestrian bicycle"/>
    <edge id="-1016223781" from="cluster_2141722638_311214763" to="7024824463" priority="11" type="highway.secondary" numLanes="1" speed="27.78" shape="7666.22,2452.64 7661.13,2467.22 7653.85,2488.32 7627.89,2560.75 7619.31,2582.52 7609.96,2604.74 7593.08,2641.95 7569.28,2687.26 7554.19,2711.83 7540.79,2732.78 7531.00,2748.55 7521.87,2762.79 7510.50,2780.30 7481.43,2825.90 7424.86,2915.69 7415.37,2932.40 7409.84,2945.14 7399.79,2972.20 7399.20,2973.27 7390.82,2996.13 7379.70,3028.63 7339.82,3143.06 7317.62,3205.72 7310.69,3225.41 7258.75,3373.05 7256.05,3381.17 7250.82,3394.83 7245.25,3409.15 7235.74,3434.30 7212.70,3496.26 7208.66,3507.56" disallow="tram rail_urban rail rail_electric rail_fast ship">
        <param key="ref" value="D 40"/>
    </edge>
    <edge id="-1020619869#0" from="10792993041" to="9413367637" priority="1" type="highway.service" numLanes="1" speed="5.56" allow="pedestrian delivery bicycle"/>
    <edge id="-1020619869#1" from="6900237111" to="10792993041" priority="1" type="highway.service" numLanes="1" speed="5.56" shape="8135.26,5310.67 8136.43,5307.60 8138.36,5302.31 8178.88,5314.56 8179.55,5321.26" allow="pedestrian delivery bicycle"/>
    <edge id="-1020619869#2" from="10792993008" to="6900237111" priority="1" type="highway.service" numLanes="1" speed="5.56" allow="pedestrian delivery bicycle"/>
    <edge id="-1021706390" from="9423161707" to="3404200647" priority="1" type="highway.track" numLanes="1" speed="5.56" allow="pedestrian motorcycle moped bicycle"/>
    <edge id="-1021706391#0" from="9423161707" to="9423161708" priority="1" type="highway.track" numLanes="1" speed="5.56" allow="pedestrian motorcycle moped bicycle"/>
    <edge id="-1021706391#1" from="9423161712" to="9423161707" priority="1" type="highway.track" numLanes="1" speed="5.56" shape="5640.42,3113.60 5633.69,3217.66 5629.33,3222.56 5608.43,3223.05 5313.39,3198.77" allow="pedestrian motorcycle moped bicycle"/>
    <edge id="-1021706392#0" from="9423165422" to="5579032326" priority="1" type="highway.track" numLanes="1" speed="5.56" shape="5371.12,2772.00 5330.78,2790.25 5290.00,2827.14 5240.34,2853.96 5215.33,2882.93 5163.72,2920.08 5149.89,2947.34 5120.53,2982.41 5086.76,3001.81 5036.76,2998.85 4937.73,2937.53 4922.64,2939.99 4877.34,2970.16 4858.68,2978.50 4778.35,2992.65 4699.15,2967.41" allow="pedestrian motorcycle moped bicycle"/>
    <edge id="-1021706392#1" from="9423165423" to="9423165422" priority="1" type="highway.track" numLanes="1" speed="5.56" allow="pedestrian motorcycle moped bicycle"/>
    <edge id="-1021706392#2" from="9423161712" to="9423165423" priority="1" type="highway.track" numLanes="1" speed="5.56" shape="5640.42,3113.60 5618.32,3113.29 5605.75,3107.58 5602.14,3102.63 5601.31,3094.50 5602.68,3086.45 5612.94,3064.57 5623.26,3057.18 5648.51,3048.33 5652.28,3046.14 5688.38,3018.85 5691.56,3014.47 5689.94,3010.11 5660.40,2993.16 5643.60,2976.55 5642.78,2971.40 5652.43,2946.53 5654.39,2936.40 5650.65,2901.11 5641.02,2837.82 5628.53,2808.83 5604.89,2776.76 5582.33,2761.17 5537.65,2744.89 5531.23,2733.40" allow="pedestrian motorcycle moped bicycle"/>
    <edge id="-1021706392#3" from="3404202782" to="9423161712" priority="1" type="highway.track" numLanes="1" speed="5.56" shape="6170.98,3109.58 6157.81,3101.46 6130.57,3111.11 6105.91,3116.97 6061.30,3115.37 6039.15,3121.82 6015.27,3124.30 5941.23,3129.56 5858.01,3133.29 5817.38,3120.36 5748.78,3097.03 5717.04,3108.30 5695.14,3111.37 5640.42,3113.60" allow="pedestrian motorcycle moped bicycle"/>
    <edge id="-1021706393" from="9423165423" to="9423165422" priority="1" type="highway.track" numLanes="1" speed="5.56" shape="5531.23,2733.40 5525.89,2668.92 5361.20,2707.55 5371.12,2772.00" allow="pedestrian motorcycle moped bicycle"/>
    <edge id="-1021706394" from="5579008820" to="9423165461" priority="1" type="highway.path" numLanes="1" speed="5.56" shape="3346.88,2383.41 3333.27,2386.26 3278.50,2397.72 3251.73,2407.03 3204.52,2436.49 3179.03,2452.49 3161.07,2464.27 3144.33,2469.36 3104.58,2481.24" width="2.00" allow="pedestrian bicycle"/>
    <edge id="-1044143726" from="cluster_9608187805_9608187808" to="9608187806" priority="1" type="highway.path" numLanes="1" speed="5.56" shape="3796.84,3178.65 3790.19,3169.62 3760.45,3138.28 3739.80,3117.65 3724.29,3105.55 3709.86,3098.49" width="2.00" allow="pedestrian bicycle"/>
    <edge id="-1046796053" from="2918376644" to="2918375364" priority="1" type="highway.track" numLanes="1" speed="5.56" shape="9244.62,2656.73 9278.05,2643.63 9292.28,2645.81 9301.01,2645.86 9313.94,2636.42" allow="pedestrian motorcycle moped bicycle"/>
    <edge id="-1062593532" from="9761639805" to="9761639788" priority="1" type="highway.service" numLanes="1" speed="5.56" shape="8042.20,2429.25 8014.64,2513.14 8009.34,2533.89" allow="pedestrian delivery bicycle"/>
    <edge id="-1062593533" from="9761639789" to="9761639802" priority="1" type="highway.service" numLanes="1" speed="5.56" allow="pedestrian delivery bicycle"/>
    <edge id="-1062593534" from="9761639790" to="9761639791" priority="1" type="highway.service" numLanes="1" speed="5.56" allow="pedestrian delivery bicycle"/>
    <edge id="-1062593535" from="9761639792" to="9761639801" priority="1" type="highway.service" numLanes="1" speed="5.56" shape="7950.07,2415.45 7923.53,2485.89 7916.82,2500.41" allow="pedestrian delivery bicycle"/>
    <edge id="-1062593536" from="9761639807" to="9761639796" priority="1" type="highway.service" numLanes="1" speed="5.56" shape="7876.87,2404.90 7874.23,2416.69 7859.58,2453.42 7851.94,2482.01" allow="pedestrian delivery bicycle"/>
    <edge id="-1062593537#0" from="9761639788" to="9761639803" priority="1" type="highway.service" numLanes="1" speed="5.56" allow="pedestrian delivery bicycle"/>
    <edge id="-1062593537#1" from="9761639802" to="9761639788" priority="1" type="highway.service" numLanes="1" speed="5.56" allow="pedestrian delivery bicycle"/>
    <edge id="-1062593537#2" from="9761639790" to="9761639802" priority="1" type="highway.service" numLanes="1" speed="5.56" allow="pedestrian delivery bicycle"/>
    <edge id="-1062593537#3" from="9761639801" to="9761639790" priority="1" type="highway.service" numLanes="1" speed="5.56" allow="pedestrian delivery bicycle"/>
    <edge id="-1062593537#4" from="9761639796" to="9761639801" priority="1" type="highway.service" numLanes="1" speed="5.56" allow="pedestrian delivery bicycle"/>
    <edge id="-1062593537#5" from="9761639810" to="9761639796" priority="1" type="highway.service" numLanes="1" speed="5.56" shape="7834.39,2401.44 7820.14,2425.53 7804.75,2461.93 7806.35,2466.09 7838.66,2478.08 7851.94,2482.01" allow="pedestrian delivery bicycle"/>
    <edge id="-1062593538#0" from="9761639810" to="9761655017" priority="1" type="highway.service" numLanes="1" speed="5.56" allow="pedestrian delivery bicycle"/>
    <edge id="-1062593538#1" from="9761639807" to="9761639810" priority="1" type="highway.service" numLanes="1" speed="5.56" shape="7876.87,2404.90 7863.06,2402.72 7847.53,2403.18 7834.39,2401.44" allow="pedestrian delivery bicycle"/>
    <edge id="-1062593538#2" from="9761639792" to="9761639807" priority="1" type="highway.service" numLanes="1" speed="5.56" shape="7950.07,2415.45 7918.06,2410.66 7876.87,2404.90" allow="pedestrian delivery bicycle"/>
    <edge id="-1062593538#3" from="9761639791" to="9761639792" priority="1" type="highway.service" numLanes="1" speed="5.56" allow="pedestrian delivery bicycle"/>
    <edge id="-1062593538#4" from="9761639789" to="9761639791" priority="1" type="highway.service" numLanes="1" speed="5.56" allow="pedestrian delivery bicycle"/>
    <edge id="-1062593538#5" from="9761639805" to="9761639789" priority="1" type="highway.service" numLanes="1" speed="5.56" allow="pedestrian delivery bicycle"/>
    <edge id="-1062593538#6" from="9761639804" to="9761639805" priority="1" type="highway.service" numLanes="1" speed="5.56" allow="pedestrian delivery bicycle"/>
    <edge id="-1062609809#0" from="9761804717" to="9761804716" priority="1" type="highway.service" numLanes="1" speed="5.56" allow="pedestrian delivery bicycle"/>
    <edge id="-1062609809#1" from="9761804715" to="9761804717" priority="1" type="highway.service" numLanes="1" speed="5.56" allow="pedestrian delivery bicycle"/>
    <edge id="-1062609810" from="9761804717" to="9761804718" priority="1" type="highway.service" numLanes="1" speed="5.56" allow="pedestrian delivery bicycle"/>
    <edge id="-1062609811" from="cluster_9761804721_9761804728" to="1882081533" priority="1" type="highway.service" numLanes="1" speed="5.56" shape="7653.48,6524.70 7628.29,6526.19 7624.82,6531.26 7627.52,6559.82 7633.67,6570.75" allow="pedestrian delivery bicycle"/>
    <edge id="-1062609812#0" from="9761804726" to="cluster_9761804721_9761804728" priority="1" type="highway.service" numLanes="1" speed="5.56" shape="7669.37,6547.76 7676.68,6532.54 7654.92,6521.66" allow="pedestrian delivery bicycle"/>
    <edge id="-1062609812#1" from="9761804725" to="9761804726" priority="1" type="highway.service" numLanes="1" speed="5.56" allow="pedestrian delivery bicycle"/>
    <edge id="-1062609813" from="1882081383" to="1882081388" priority="1" type="highway.path" numLanes="1" speed="5.56" shape="8091.57,5907.57 8076.35,5897.74 8048.11,5923.25" width="2.00" allow="pedestrian bicycle"/>
    <edge id="-1062609814" from="9761804732" to="3263800557" priority="1" type="highway.service" numLanes="1" speed="5.56" shape="8105.61,5927.68 8101.71,5921.75 8100.71,5915.06" allow="pedestrian delivery bicycle"/>
    <edge id="-1062609815" from="9761804732" to="cluster_1882081406_9761804736" priority="1" type="highway.path" numLanes="1" speed="5.56" shape="8105.61,5927.68 8102.75,5933.65 8107.57,5945.53 8112.61,5961.10 8144.46,5975.29" width="2.00" allow="pedestrian bicycle"/>
    <edge id="-1062609816#0" from="9761804738" to="3263800558" priority="1" type="highway.path" numLanes="1" speed="5.56" width="2.00" allow="pedestrian bicycle"/>
    <edge id="-1062609816#1" from="3263812878" to="9761804738" priority="1" type="highway.path" numLanes="1" speed="5.56" shape="8154.28,5938.38 8152.81,5932.86 8146.72,5928.72" width="2.00" allow="pedestrian bicycle"/>
    <edge id="-1062609817" from="3263832982" to="9761804738" priority="1" type="highway.path" numLanes="1" speed="5.56" shape="8126.37,5829.51 8138.29,5831.22 8160.32,5841.85 8159.25,5847.31 8162.45,5853.45 8162.00,5864.46 8146.72,5928.72" width="2.00" allow="pedestrian bicycle"/>
    <edge id="-1062609818" from="9761804744" to="3263833020" priority="1" type="highway.service" numLanes="1" speed="5.56" allow="pedestrian delivery bicycle"/>
    <edge id="-1062609819" from="9761804745" to="9761804746" priority="1" type="highway.service" numLanes="1" speed="5.56" allow="pedestrian delivery bicycle"/>
    <edge id="-1062609820" from="9761804747" to="9761804748" priority="1" type="highway.service" numLanes="1" speed="5.56" allow="pedestrian delivery bicycle"/>
    <edge id="-1062609821" from="9761804749" to="9761804751" priority="1" type="highway.service" numLanes="1" speed="5.56" shape="7967.59,5537.58 7940.47,5525.87 7936.28,5521.69" allow="pedestrian delivery bicycle"/>
    <edge id="-1062609823" from="9761804756" to="9761804757" priority="1" type="highway.service" numLanes="1" speed="5.56" allow="pedestrian delivery bicycle"/>
    <edge id="-1062609826" from="9761804767" to="9761804768" priority="1" type="highway.service" numLanes="1" speed="5.56" allow="pedestrian delivery bicycle"/>
    <edge id="-1062609827#0" from="9761804768" to="9761804770" priority="1" type="highway.service" numLanes="1" speed="5.56" allow="pedestrian delivery bicycle"/>
    <edge id="-1062609827#1" from="9761804769" to="9761804768" priority="1" type="highway.service" numLanes="1" speed="5.56" allow="pedestrian delivery bicycle"/>
    <edge id="-1062609828#0" from="9761804770" to="9761804772" priority="1" type="highway.service" numLanes="1" speed="5.56" allow="pedestrian delivery bicycle"/>
    <edge id="-1062609828#1" from="9761804771" to="9761804770" priority="1" type="highway.service" numLanes="1" speed="5.56" allow="pedestrian delivery bicycle"/>
    <edge id="-1062609829" from="9761804774" to="9761804776" priority="1" type="highway.service" numLanes="1" speed="5.56" shape="7985.45,5705.69 7923.04,5678.15 7912.03,5680.45" allow="pedestrian delivery bicycle"/>
    <edge id="-1062609830#0" from="10274075493" to="cluster_1882040719_9761804779" priority="3" type="highway.residential" numLanes="1" speed="13.89" shape="8021.77,5648.62 8008.35,5680.41 7992.06,5719.16 7985.66,5726.91" disallow="tram rail_urban rail rail_electric rail_fast ship"/>
    <edge id="-1062609830#1" from="10274075479" to="10274075493" priority="3" type="highway.residential" numLanes="1" speed="13.89" disallow="tram rail_urban rail rail_electric rail_fast ship"/>
    <edge id="-1062609830#2" from="10274075490" to="10274075479" priority="3" type="highway.residential" numLanes="1" speed="13.89" disallow="tram rail_urban rail rail_electric rail_fast ship"/>
    <edge id="-1062609830#3" from="cluster_10274075480_5982774539" to="10274075490" priority="3" type="highway.residential" numLanes="1" speed="13.89" shape="8030.04,5579.73 8029.92,5588.34 8027.91,5622.76" disallow="tram rail_urban rail rail_electric rail_fast ship"/>
    <edge id="-1062609831" from="9761804780" to="9761804781" priority="1" type="highway.service" numLanes="1" speed="5.56" allow="pedestrian delivery bicycle"/>
    <edge id="-1062609832" from="9761804782" to="9761804787" priority="3" type="highway.residential" numLanes="1" speed="13.89" shape="6743.77,5828.06 6742.02,5839.38 6771.89,5845.22 6763.13,5893.67 6704.58,5882.99 6651.34,5877.48" disallow="tram rail_urban rail rail_electric rail_fast ship"/>
    <edge id="-1062609833" from="cluster_10107251387_1796119131_1796119438_7034009510_#1more" to="9761804789" priority="1" type="highway.service" numLanes="1" speed="5.56" shape="6491.47,5180.03 6552.86,5186.85" allow="pedestrian delivery bicycle"/>
    <edge id="-1062609834" from="9761804790" to="9761804791" priority="3" type="highway.residential" numLanes="1" speed="13.89" disallow="tram rail_urban rail rail_electric rail_fast ship"/>
    <edge id="-1078856743" from="9890121226" to="9890121229" priority="1" type="highway.service" numLanes="1" speed="5.56" shape="6547.12,5262.73 6544.30,5260.57 6537.83,5258.40 6524.49,5258.56" allow="pedestrian delivery bicycle"/>
    <edge id="-1078856744#0" from="9890121226" to="cluster_10107251387_1796119131_1796119438_7034009510_#1more" priority="1" type="highway.service" numLanes="1" speed="5.56" shape="6547.12,5262.73 6566.45,5234.92 6567.48,5232.24 6567.96,5228.57 6567.05,5224.75 6565.90,5223.16 6497.10,5214.96 6487.78,5213.92" allow="pedestrian delivery bicycle"/>
    <edge id="-1078856744#1" from="9890121230" to="9890121226" priority="1" type="highway.service" numLanes="1" speed="5.56" allow="pedestrian delivery bicycle"/>
    <edge id="-1078856745" from="251300156" to="1796119108" priority="11" type="highway.secondary" numLanes="1" speed="27.78" disallow="tram rail_urban rail rail_electric rail_fast ship">
        <param key="ref" value="D 16"/>
    </edge>
    <edge id="-1078856750" from="1542592756" to="2581589251" priority="4" type="highway.unclassified" numLanes="1" speed="13.89" disallow="tram rail_urban rail rail_electric rail_fast ship"/>
    <edge id="-1078856782#0" from="6900282038" to="4582738984" priority="1" type="highway.service" numLanes="1" speed="5.56" allow="pedestrian delivery bicycle"/>
    <edge id="-1078856782#1" from="4582738980" to="6900282038" priority="1" type="highway.service" numLanes="1" speed="5.56" shape="6453.53,5714.81 6465.24,5645.22 6472.92,5590.64" allow="pedestrian delivery bicycle"/>
    <edge id="-1087926588" from="9967930584" to="9967930572" priority="1" type="highway.track" numLanes="1" speed="5.56" shape="7978.81,6676.13 8026.94,6712.70 8053.38,6755.77 8088.66,6819.41 8100.09,6840.03 8116.74,6865.65 8121.20,6863.49 8310.38,6759.11 8541.68,6940.06" allow="pedestrian motorcycle moped bicycle"/>
    <edge id="-1087926589" from="9967930586" to="4690863768" priority="1" type="highway.track" numLanes="1" speed="5.56" shape="7872.61,7176.95 7917.32,7288.21 7920.58,7296.47 7852.52,7314.90 7717.17,7355.50 7686.16,7362.16 7680.39,7362.39 7675.41,7360.82 7673.40,7355.28 7672.19,7349.12" allow="pedestrian motorcycle moped bicycle"/>
    <edge id="-1087926590" from="9967930589" to="4690863768" priority="1" type="highway.track" numLanes="1" speed="5.56" shape="7668.72,7466.91 7671.44,7362.36 7672.19,7349.12" allow="pedestrian motorcycle moped bicycle"/>
    <edge id="-1087926593#0" from="1942608204" to="9967930598" priority="1" type="highway.track" numLanes="1" speed="5.56" shape="8130.52,7300.83 8086.55,7225.69 7911.56,6898.22 7893.72,6864.84 7865.96,6821.94 7853.25,6813.04" allow="pedestrian motorcycle moped bicycle"/>
    <edge id="-1087926593#1" from="9967930614" to="1942608204" priority="1" type="highway.track" numLanes="1" speed="5.56" shape="8234.06,7420.57 8231.02,7417.53 8181.61,7368.00 8152.24,7338.56 8130.52,7300.83" allow="pedestrian motorcycle moped bicycle"/>
    <edge id="-1087926594" from="2378978997" to="9967930614" priority="1" type="highway.track" numLanes="1" speed="5.56" shape="8458.10,7905.68 8411.43,7812.74 8237.82,7426.88 8235.73,7422.24 8234.06,7420.57" allow="pedestrian motorcycle moped bicycle"/>
    <edge id="-1087926607" from="9967939331" to="9967939330" priority="1" type="highway.track" numLanes="1" speed="5.56" allow="pedestrian motorcycle moped bicycle"/>
    <edge id="-1089477908#0" from="8123536152" to="3904274061" priority="3" type="highway.residential" numLanes="1" speed="13.89" shape="6890.64,5510.28 6885.70,5508.28 6853.28,5502.94" disallow="tram rail_urban rail rail_electric rail_fast ship"/>
    <edge id="-1089477908#1" from="3904274435" to="8123536152" priority="3" type="highway.residential" numLanes="1" speed="13.89" disallow="tram rail_urban rail rail_electric rail_fast ship"/>
    <edge id="-1089477908#2" from="661726504" to="3904274435" priority="3" type="highway.residential" numLanes="1" speed="13.89" disallow="tram rail_urban rail rail_electric rail_fast ship"/>
    <edge id="-1104523995#0" from="10107281141" to="10107281144" priority="1" type="highway.service" numLanes="1" speed="5.56" shape="6284.26,6848.73 6293.25,6847.93 6303.40,6840.40 6310.75,6841.19" allow="pedestrian delivery bicycle"/>
    <edge id="-1104523995#1" from="10210020222" to="10107281141" priority="1" type="highway.service" numLanes="1" speed="5.56" allow="pedestrian delivery bicycle"/>
    <edge id="-1104523995#2" from="10210020223" to="10210020222" priority="1" type="highway.service" numLanes="1" speed="5.56" shape="6275.41,6800.45 6260.85,6798.04 6253.33,6845.97 6268.24,6847.30" allow="pedestrian delivery bicycle"/>
    <edge id="-1104523995#3" from="10210020221" to="10210020223" priority="1" type="highway.service" numLanes="1" speed="5.56" allow="pedestrian delivery bicycle"/>
    <edge id="-1104523995#4" from="4715093222" to="10210020221" priority="1" type="highway.service" numLanes="1" speed="5.56" allow="pedestrian delivery bicycle"/>
    <edge id="-1104523996" from="2270757224" to="2270757213" priority="1" type="highway.service" numLanes="1" speed="5.56" shape="7262.16,5162.35 7267.98,5162.51 7275.87,5162.90 7308.86,5160.34" allow="pedestrian delivery bicycle"/>
    <edge id="-1104526781#0" from="251300166" to="9761804791" priority="10" type="highway.tertiary" numLanes="1" speed="22.22" shape="6803.95,4809.43 6796.80,4825.68 6790.81,4838.56 6788.56,4842.65 6762.08,4899.80 6748.50,4928.70 6735.79,4952.87 6719.95,4978.44 6695.86,5007.98 6684.50,5019.42 6681.63,5022.10 6670.02,5031.81 6658.69,5041.71 6608.30,5074.86 6559.84,5105.78" disallow="tram rail_urban rail rail_electric rail_fast ship">
        <param key="ref" value="D 98"/>
    </edge>
    <edge id="-1104526781#1" from="cluster_10107273928_10107273929_1542723000" to="251300166" priority="10" type="highway.tertiary" numLanes="1" speed="22.22" shape="6809.60,4773.33 6803.95,4809.43" disallow="tram rail_urban rail rail_electric rail_fast ship">
        <param key="ref" value="D 98"/>
    </edge>
    <edge id="-1104526785#0" from="1542592851" to="270773579" priority="4" type="highway.unclassified" numLanes="1" speed="13.89" shape="6162.15,5938.13 6165.81,5930.71 6171.17,5917.19 6176.54,5903.68 6181.90,5890.16 6186.78,5879.08 6193.35,5861.72" disallow="tram rail_urban rail rail_electric rail_fast ship"/>
    <edge id="-1109225152#0" from="10149145067" to="10149145069" priority="1" type="highway.path" numLanes="1" speed="5.56" shape="8917.57,3782.18 8905.46,3726.73 8906.29,3700.31" width="2.00" allow="pedestrian bicycle"/>
    <edge id="-1109225152#1" from="2331961505" to="10149145067" priority="1" type="highway.path" numLanes="1" speed="5.56" width="2.00" allow="pedestrian bicycle"/>
    <edge id="-1109225152#2" from="2331961418" to="2331961505" priority="1" type="highway.path" numLanes="1" speed="5.56" shape="8933.97,3923.81 8945.09,3878.44 8922.38,3837.76" width="2.00" allow="pedestrian bicycle"/>
    <edge id="-1109229201" from="2331961512" to="2331961305" priority="1" type="highway.path" numLanes="1" speed="5.56" shape="8853.11,3808.96 8838.90,3830.81 8825.22,3839.99 8806.91,3837.32 8792.78,3848.78 8783.27,3874.80 8771.42,3899.79" width="2.00" allow="pedestrian bicycle"/>
    <edge id="-1109229729" from="661740227" to="10149166008" priority="1" type="highway.service" numLanes="1" speed="5.56" shape="9187.99,3527.31 9205.17,3521.11 9215.89,3512.94 9227.97,3499.07 9229.81,3480.93 9218.59,3463.20" allow="pedestrian delivery bicycle"/>
    <edge id="-1114851537" from="1542722945" to="251308476" priority="1" type="highway.track" numLanes="1" speed="5.56" shape="6629.99,4712.11 6636.16,4680.63 6641.45,4672.13 6644.78,4659.63 6652.01,4649.61 6651.94,4636.41 6654.60,4629.98" allow="pedestrian motorcycle moped bicycle"/>
    <edge id="-1114851538" from="1542722945" to="1542722900" priority="1" type="highway.track" numLanes="1" speed="5.56" shape="6629.99,4712.11 6627.07,4710.12 6588.77,4689.91 6549.92,4676.18" allow="pedestrian motorcycle moped bicycle"/>
    <edge id="-1114851539" from="1542723332" to="1542723020" priority="1" type="highway.path" numLanes="1" speed="5.56" shape="6637.13,4837.34 6657.62,4829.51 6663.90,4833.79 6681.33,4834.22 6695.36,4831.17 6709.40,4829.61 6720.53,4827.07 6733.58,4819.53 6751.92,4803.98 6760.12,4797.45" width="2.00" allow="pedestrian bicycle"/>
    <edge id="-1114851540" from="1542722871" to="251300178" priority="1" type="highway.path" numLanes="1" speed="5.56" shape="6414.08,4615.14 6419.88,4611.12 6450.75,4580.04 6452.64,4570.05 6467.00,4551.26" width="2.00" allow="pedestrian bicycle"/>
    <edge id="-1114851541" from="1542723247" to="1542722404" priority="1" type="highway.path" numLanes="1" speed="5.56" shape="6197.08,4723.87 6211.15,4726.81 6230.54,4732.73 6247.52,4741.14 6257.73,4750.09 6269.89,4762.52 6283.03,4778.44 6287.41,4784.41" width="2.00" allow="pedestrian bicycle"/>
    <edge id="-1114851542#0" from="1542722932" to="1542722392" priority="1" type="highway.path" numLanes="1" speed="5.56" shape="6381.08,4720.27 6368.93,4705.19 6353.65,4707.24 6337.02,4708.91 6322.44,4705.38 6309.84,4702.44" width="2.00" allow="pedestrian bicycle"/>
    <edge id="-1114851544" from="1542722900" to="1542722966" priority="1" type="highway.path" numLanes="1" speed="5.56" shape="6549.92,4676.18 6535.53,4677.75 6529.15,4684.46 6528.48,4694.45 6532.80,4708.82 6533.69,4716.00 6530.67,4724.20 6526.97,4726.40 6519.10,4727.84 6512.01,4729.77 6506.32,4738.58 6500.15,4739.70 6489.66,4738.64" width="2.00" allow="pedestrian bicycle"/>
    <edge id="-1114949902#0" from="1542723345" to="1542723332" priority="1" type="highway.path" numLanes="1" speed="5.56" shape="6567.14,4858.15 6583.12,4857.58 6594.25,4856.05 6603.45,4853.51 6610.69,4848.49 6617.94,4846.46 6637.13,4837.34" width="2.00" allow="pedestrian bicycle"/>
    <edge id="-1114949902#1" from="3577290698" to="1542723345" priority="1" type="highway.path" numLanes="1" speed="5.56" shape="6455.16,4896.38 6459.79,4896.53 6473.34,4893.48 6483.01,4890.45 6497.03,4883.90 6513.91,4868.36 6523.57,4861.82 6533.24,4858.78 6548.74,4858.22 6567.14,4858.15" width="2.00" allow="pedestrian bicycle"/>
    <edge id="-1116312810" from="10210020221" to="10107281141" priority="1" type="highway.service" numLanes="1" speed="5.56" allow="pedestrian delivery bicycle"/>
    <edge id="-1116312811" from="10210020223" to="10210020222" priority="1" type="highway.service" numLanes="1" speed="5.56" allow="pedestrian delivery bicycle"/>
    <edge id="-1120533319" from="10248612465" to="649666801" priority="1" type="highway.service" numLanes="1" speed="5.56" shape="6926.35,3424.64 6933.49,3450.94 6926.37,3462.04 6930.37,3471.66" allow="pedestrian delivery bicycle"/>
    <edge id="-1125756488" from="1882081471" to="10294413486" priority="1" type="highway.service" numLanes="1" speed="5.56" shape="8092.33,6113.28 8096.99,6119.69 8136.85,6161.31" allow="pedestrian delivery bicycle"/>
    <edge id="-1125756489" from="2960148092" to="2960148106" priority="3" type="highway.residential" numLanes="1" speed="13.89" disallow="tram rail_urban rail rail_electric rail_fast ship"/>
    <edge id="-1125801450" from="10294829808" to="3904472891" priority="1" type="highway.path" numLanes="1" speed="5.56" width="2.00" allow="pedestrian bicycle"/>
    <edge id="-1125801451" from="10294829808" to="2918463658" priority="3" type="highway.residential" numLanes="1" speed="13.89" disallow="tram rail_urban rail rail_electric rail_fast ship"/>
    <edge id="-1125801453" from="1882081350" to="1882081359" priority="1" type="highway.path" numLanes="1" speed="5.56" shape="8307.54,5821.01 8305.21,5840.41 8306.81,5844.07 8327.16,5864.01" width="2.00" allow="pedestrian bicycle"/>
    <edge id="-1125801455" from="1882081322" to="1882081328" priority="1" type="highway.path" numLanes="1" speed="5.56" width="2.00" allow="pedestrian bicycle"/>
    <edge id="-1126664445" from="1796119243" to="10302242705" priority="1" type="highway.path" numLanes="1" speed="5.56" shape="6133.85,5110.28 6139.70,5107.68 6160.80,5108.69 6167.77,5110.24 6192.92,5117.15" width="2.00" allow="pedestrian bicycle"/>
    <edge id="-1126664446" from="1796119301" to="1796119371" priority="1" type="highway.path" numLanes="1" speed="5.56" width="2.00" allow="pedestrian bicycle"/>
    <edge id="-1126925294" from="8032784067" to="10304554047" priority="1" type="highway.path" numLanes="1" speed="5.56" shape="6402.78,6212.75 6414.49,6220.41 6432.59,6243.56 6446.33,6245.78 6457.26,6262.60" width="2.00" allow="pedestrian bicycle"/>
    <edge id="-1126987415" from="10305093764" to="1428759887" priority="1" type="highway.track" numLanes="1" speed="5.56" allow="pedestrian motorcycle moped bicycle"/>
    <edge id="-1126987416#0" from="3259187478" to="2162599858" priority="3" type="highway.residential" numLanes="1" speed="13.89" shape="7082.86,3119.48 7078.17,3108.07 7065.77,3092.65 7036.62,3066.27 7000.88,3038.54 6986.68,3020.55 6976.82,2993.11 6970.95,2969.12" disallow="tram rail_urban rail rail_electric rail_fast ship"/>
    <edge id="-1126987416#1" from="649666613" to="3259187478" priority="3" type="highway.residential" numLanes="1" speed="13.89" shape="7088.11,3149.49 7087.93,3141.38 7086.83,3133.52 7082.86,3119.48" disallow="tram rail_urban rail rail_electric rail_fast ship"/>
    <edge id="-1126987417" from="2162600010" to="2162599991" priority="4" type="highway.unclassified" numLanes="1" speed="13.89" shape="7083.63,3589.02 7081.87,3576.77 7085.43,3543.87" disallow="tram rail_urban rail rail_electric rail_fast ship"/>