<?xml version="1.0" encoding="UTF-8"?>

<!-- generated on 2025-04-04 16:25:12 by Eclipse SUMO netconvert Version 1.19.0
<configuration xmlns:xsi="http://www.w3.org/2001/XMLSchema-instance" xsi:noNamespaceSchemaLocation="http://sumo.dlr.de/xsd/netconvertConfiguration.xsd">

    <input>
        <sumo-net-file value="plaisir/plaisir.net.xml"/>
    </input>

    <output>
        <plain-output-prefix value="plaisir/plaisir"/>
    </output>

    <processing>
        <geometry.min-radius.fix.railways value="false"/>
        <geometry.max-grade.fix value="false"/>
        <offset.disable-normalization value="true"/>
        <lefthand value="0"/>
    </processing>

    <tls_building>
        <tls.ignore-internal-junction-jam value="1"/>
    </tls_building>

    <junctions>
        <no-turnarounds value="true"/>
        <junctions.corner-detail value="5"/>
        <junctions.limit-turn-speed value="5.50"/>
        <rectangular-lane-cut value="0"/>
    </junctions>

    <pedestrian>
        <walkingareas value="0"/>
    </pedestrian>

</configuration>
-->

<nodes version="1.16" xmlns:xsi="http://www.w3.org/2001/XMLSchema-instance" xsi:noNamespaceSchemaLocation="http://sumo.dlr.de/xsd/nodes_file.xsd">
    <location netOffset="-419954.28,-5405283.54" convBoundary="0.00,0.00,10241.45,5252.70" origBoundary="1.876621,48.796100,2.067132,48.843109" projParameter="+proj=utm +zone=31 +ellps=WGS84 +datum=WGS84 +units=m +no_defs"/>

    <node id="10007495681" x="4747.89" y="3484.37" type="priority"/>
    <node id="10007495683" x="4709.23" y="3524.73" type="priority"/>
    <node id="10107117678" x="1858.34" y="2406.65" type="priority"/>
    <node id="10107117679" x="1831.67" y="2434.74" type="right_before_left"/>
    <node id="10107117681" x="1938.92" y="2446.39" type="dead_end"/>
    <node id="10107135286" x="2093.25" y="1807.76" type="right_before_left"/>
    <node id="10107135291" x="2187.32" y="1702.26" type="right_before_left"/>
    <node id="10107135296" x="2299.00" y="1649.92" type="right_before_left"/>
    <node id="10107135297" x="2300.94" y="1708.43" type="right_before_left"/>
    <node id="10107135307" x="2415.48" y="1551.74" type="right_before_left"/>
    <node id="10107143264" x="2306.08" y="2513.99" type="right_before_left"/>
    <node id="10111728164" x="2388.80" y="3932.64" type="dead_end"/>
    <node id="10111728166" x="2492.48" y="3977.29" type="dead_end"/>
    <node id="10111728169" x="2395.16" y="3937.06" type="dead_end"/>
    <node id="10111728178" x="2409.40" y="3985.36" type="dead_end"/>
    <node id="10111728179" x="2409.99" y="3989.73" type="dead_end"/>
    <node id="10111728180" x="2410.61" y="3994.27" type="priority"/>
    <node id="10111728181" x="2408.62" y="3979.58" type="dead_end"/>
    <node id="10111728182" x="2431.33" y="3979.43" type="dead_end"/>
    <node id="10111728183" x="2614.30" y="3961.53" type="priority"/>
    <node id="10111728184" x="2525.92" y="4003.37" type="priority"/>
    <node id="10111728195" x="2446.34" y="4028.43" type="priority"/>
    <node id="10111728197" x="2471.38" y="4007.39" type="priority"/>
    <node id="10111728203" x="2521.43" y="4061.37" type="dead_end"/>
    <node id="10111728205" x="2530.04" y="4111.63" type="dead_end"/>
    <node id="10111749829" x="2528.27" y="4039.55" type="dead_end"/>
    <node id="10111749830" x="2525.20" y="4036.73" type="dead_end"/>
    <node id="10111749834" x="2499.37" y="4011.86" type="dead_end"/>
    <node id="10111749835" x="2496.87" y="4012.22" type="dead_end"/>
    <node id="10111749857" x="2497.95" y="4003.97" type="dead_end"/>
    <node id="10111749858" x="2513.67" y="4001.74" type="dead_end"/>
    <node id="10111749859" x="2490.58" y="4005.01" type="dead_end"/>
    <node id="10111749860" x="2491.05" y="4008.28" type="dead_end"/>
    <node id="10111749861" x="2490.81" y="4006.66" type="dead_end"/>
    <node id="10111749862" x="2491.34" y="4010.27" type="dead_end"/>
    <node id="10111749865" x="2513.01" y="4009.98" type="dead_end"/>
    <node id="10111749869" x="2508.55" y="4010.55" type="dead_end"/>
    <node id="10111749876" x="2497.70" y="4002.43" type="dead_end"/>
    <node id="10111749877" x="2514.65" y="3988.73" type="dead_end"/>
    <node id="10111749891" x="2512.67" y="4015.63" type="dead_end"/>
    <node id="10111749893" x="2519.76" y="4014.20" type="dead_end"/>
    <node id="10111749899" x="2521.68" y="4016.53" type="dead_end"/>
    <node id="10111749900" x="2521.80" y="4017.61" type="dead_end"/>
    <node id="10111749908" x="2499.89" y="4020.41" type="dead_end"/>
    <node id="10111749912" x="2470.73" y="4025.09" type="dead_end"/>
    <node id="10135200234" x="3715.81" y="3873.15" type="dead_end"/>
    <node id="10135200235" x="3725.01" y="3872.73" type="dead_end"/>
    <node id="10135200236" x="3694.72" y="3868.47" type="priority"/>
    <node id="10135200237" x="3902.06" y="3856.74" type="priority"/>
    <node id="10135200238" x="3886.54" y="3857.55" type="right_before_left"/>
    <node id="10135200239" x="3902.87" y="3873.02" type="priority"/>
    <node id="10135200242" x="3914.94" y="3877.87" type="priority"/>
    <node id="10135200243" x="3913.37" y="3841.55" type="priority"/>
    <node id="10135200254" x="3753.12" y="3784.34" type="dead_end"/>
    <node id="10135200258" x="3521.43" y="3792.37" type="traffic_light" tl="joinedS_10135200258_10135200259_307687031_cluster_11846573148_12288163077_307685930"/>
    <node id="10135200259" x="3522.17" y="3797.84" type="traffic_light" tl="joinedS_10135200258_10135200259_307687031_cluster_11846573148_12288163077_307685930"/>
    <node id="10135200315" x="3725.11" y="3875.00" type="dead_end"/>
    <node id="10181371174" x="1705.49" y="2783.29" type="priority"/>
    <node id="10181371178" x="1707.00" y="2791.67" type="priority"/>
    <node id="10181371183" x="2201.50" y="2080.34" type="right_before_left"/>
    <node id="10224064722" x="6115.84" y="3120.82" type="dead_end"/>
    <node id="10224064725" x="6128.90" y="3131.28" type="dead_end"/>
    <node id="10224064729" x="6175.13" y="3058.37" type="priority"/>
    <node id="10224064730" x="6126.35" y="3117.98" type="priority"/>
    <node id="10224064805" x="6116.39" y="3101.95" type="dead_end"/>
    <node id="10224064806" x="6116.43" y="3104.77" type="dead_end"/>
    <node id="10224064812" x="6120.97" y="3093.54" type="dead_end"/>
    <node id="10224064814" x="6112.45" y="3090.31" type="dead_end"/>
    <node id="10224067219" x="6114.10" y="3119.08" type="dead_end"/>
    <node id="10225444781" x="5965.80" y="3083.53" type="priority"/>
    <node id="10225444797" x="6082.62" y="3069.57" type="dead_end"/>
    <node id="10225444802" x="6082.85" y="3051.06" type="dead_end"/>
    <node id="10225464023" x="6084.15" y="3052.69" type="priority"/>
    <node id="10226086902" x="2456.47" y="3996.43" type="dead_end"/>
    <node id="10226086903" x="2475.42" y="4007.01" type="dead_end"/>
    <node id="10226086905" x="2528.85" y="4036.24" type="dead_end"/>
    <node id="10226086906" x="2524.72" y="4021.76" type="dead_end"/>
    <node id="10226086913" x="2528.08" y="4038.03" type="dead_end"/>
    <node id="10226086915" x="2491.44" y="3973.21" type="dead_end"/>
    <node id="10226086916" x="2511.73" y="3975.56" type="priority"/>
    <node id="10226106617" x="2509.42" y="3970.37" type="dead_end"/>
    <node id="10226106618" x="2513.29" y="3979.35" type="dead_end"/>
    <node id="10226106619" x="2627.72" y="3936.29" type="dead_end"/>
    <node id="10226106626" x="2523.66" y="3993.92" type="dead_end"/>
    <node id="10226106627" x="2514.13" y="3995.42" type="dead_end"/>
    <node id="10226106628" x="2513.25" y="4020.68" type="dead_end"/>
    <node id="10228651039" x="3751.97" y="3855.82" type="dead_end"/>
    <node id="10228651041" x="3699.41" y="3782.44" type="priority"/>
    <node id="10228651048" x="3630.72" y="3807.69" type="dead_end"/>
    <node id="10228651056" x="3651.28" y="3847.97" type="priority"/>
    <node id="10228651059" x="3673.63" y="3854.42" type="dead_end"/>
    <node id="10228750824" x="6125.60" y="3089.00" type="dead_end"/>
    <node id="10228750825" x="6160.10" y="3067.48" type="dead_end"/>
    <node id="1027163057" x="7139.08" y="2214.24" type="right_before_left"/>
    <node id="1027163061" x="6967.47" y="2217.32" type="right_before_left"/>
    <node id="1027163082" x="6754.74" y="2337.64" type="right_before_left"/>
    <node id="1027163084" x="7204.02" y="2200.54" type="priority"/>
    <node id="1027163090" x="6821.35" y="2549.10" type="priority"/>
    <node id="1027163094" x="6535.52" y="2128.01" type="priority"/>
    <node id="1027163095" x="6773.91" y="2052.18" type="right_before_left"/>
    <node id="1027163101" x="6809.05" y="2062.60" type="priority"/>
    <node id="1027163104" x="6774.67" y="2383.70" type="priority"/>
    <node id="1027163107" x="6890.13" y="2378.55" type="priority" fringe="inner">
        <param key="buffer_stop" value="true"/>
    </node>
    <node id="1027163124" x="7283.86" y="2260.41" type="priority"/>
    <node id="1027163130" x="6604.15" y="2358.30" type="right_before_left"/>
    <node id="1027163134" x="6903.11" y="2202.63" type="right_before_left"/>
    <node id="1027163139" x="7203.55" y="2349.82" type="priority"/>
    <node id="1027163168" x="6826.85" y="2332.92" type="right_before_left"/>
    <node id="1027163175" x="7035.16" y="2175.45" type="priority" fringe="inner">
        <param key="buffer_stop" value="true"/>
    </node>
    <node id="1027163177" x="6615.26" y="2227.92" type="right_before_left"/>
    <node id="1027163196" x="6931.36" y="2264.99" type="priority"/>
    <node id="1027163203" x="7234.07" y="2219.53" type="right_before_left"/>
    <node id="1027163212" x="6751.91" y="2379.89" type="right_before_left"/>
    <node id="1027163227" x="7003.85" y="2315.50" type="priority"/>
    <node id="1027163237" x="7012.02" y="2277.44" type="priority"/>
    <node id="1027163253" x="6963.91" y="2267.74" type="priority"/>
    <node id="1027163283" x="6835.40" y="2198.34" type="right_before_left"/>
    <node id="1027163304" x="6867.84" y="2272.33" type="priority"/>
    <node id="1027163311" x="7166.55" y="2188.95" type="right_before_left"/>
    <node id="1027163348" x="6653.20" y="2219.00" type="priority"/>
    <node id="1027163356" x="7242.65" y="2295.19" type="priority"/>
    <node id="1027163359" x="6927.41" y="2322.32" type="priority"/>
    <node id="1027163368" x="7085.77" y="2162.24" type="right_before_left"/>
    <node id="1027163378" x="6909.28" y="2105.43" type="priority"/>
    <node id="1027163381" x="6777.90" y="2388.92" type="priority"/>
    <node id="1027163387" x="6914.03" y="2403.02" type="priority" fringe="inner">
        <param key="buffer_stop" value="true"/>
    </node>
    <node id="1027163389" x="6842.73" y="2082.81" type="priority"/>
    <node id="1027163397" x="6984.15" y="2296.15" type="right_before_left"/>
    <node id="1027163404" x="7043.93" y="2147.83" type="right_before_left"/>
    <node id="1027163413" x="7051.95" y="2226.64" type="right_before_left"/>
    <node id="1027163418" x="6622.48" y="2150.05" type="priority"/>
    <node id="1027163425" x="6894.04" y="2389.98" type="priority"/>
    <node id="1027163429" x="6705.11" y="2398.33" type="priority"/>
    <node id="1027163437" x="6859.51" y="2356.00" type="priority" fringe="inner">
        <param key="buffer_stop" value="true"/>
    </node>
    <node id="1027163450" x="6974.41" y="2135.73" type="priority"/>
    <node id="1027163453" x="6703.74" y="2136.09" type="priority"/>
    <node id="1027184171" x="7314.62" y="4045.50" type="priority"/>
    <node id="1027184205" x="7008.53" y="4154.93" type="priority"/>
    <node id="1027184233" x="6743.91" y="3756.01" type="priority"/>
    <node id="1027184265" x="7271.31" y="4267.79" type="priority"/>
    <node id="1027184269" x="6886.41" y="3824.05" type="priority" fringe="inner">
        <param key="buffer_stop" value="true"/>
    </node>
    <node id="1027184272" x="7186.63" y="4104.61" type="right_before_left"/>
    <node id="1027184320" x="7118.72" y="3853.01" type="priority"/>
    <node id="1027184418" x="7239.88" y="3954.99" type="right_before_left"/>
    <node id="1027184424" x="7090.84" y="4114.21" type="priority"/>
    <node id="1027184448" x="7243.84" y="4091.80" type="right_before_left"/>
    <node id="1027184461" x="7105.59" y="4101.60" type="priority"/>
    <node id="1027184480" x="6868.49" y="4228.83" type="priority"/>
    <node id="1027184481" x="7200.85" y="4265.66" type="right_before_left"/>
    <node id="1027184495" x="7201.62" y="3917.34" type="right_before_left"/>
    <node id="1027184519" x="7180.44" y="4260.62" type="right_before_left"/>
    <node id="1027184544" x="7102.17" y="3975.79" type="priority"/>
    <node id="1027184554" x="7286.95" y="4228.51" type="right_before_left"/>
    <node id="1027184566" x="7045.87" y="4159.20" type="priority"/>
    <node id="1027184604" x="7055.31" y="3965.60" type="priority"/>
    <node id="1027184648" x="7211.69" y="4206.57" type="priority"/>
    <node id="1027184652" x="7287.18" y="4006.48" type="priority"/>
    <node id="1027184678" x="7225.78" y="4097.09" type="priority"/>
    <node id="1027184704" x="7223.17" y="4269.72" type="right_before_left"/>
    <node id="1027184706" x="6914.39" y="3890.20" type="right_before_left"/>
    <node id="1027206094" x="5783.05" y="3631.92" type="priority"/>
    <node id="1027206100" x="6059.60" y="3944.35" type="priority"/>
    <node id="1027206101" x="5930.75" y="3771.56" type="priority"/>
    <node id="1027206109" x="5456.79" y="4088.09" type="priority"/>
    <node id="1027206117" x="6370.43" y="3950.17" type="priority"/>
    <node id="1027206118" x="5686.96" y="3759.15" type="priority"/>
    <node id="1027206119" x="5876.66" y="3652.02" type="priority"/>
    <node id="1027206122" x="6071.49" y="3982.63" type="priority"/>
    <node id="1027206134" x="5680.01" y="3772.06" type="priority"/>
    <node id="1027206145" x="6002.58" y="3963.18" type="priority"/>
    <node id="1027206147" x="5967.39" y="3537.59" type="priority"/>
    <node id="1027206152" x="5460.38" y="3756.71" type="priority"/>
    <node id="1027206153" x="5845.99" y="3771.11" type="priority"/>
    <node id="1027206161" x="6073.72" y="3161.94" type="priority"/>
    <node id="1027206162" x="5957.41" y="3941.42" type="right_before_left"/>
    <node id="1027206175" x="5965.19" y="3908.12" type="priority"/>
    <node id="1027206176" x="5931.25" y="3585.29" type="priority"/>
    <node id="1027206180" x="5850.60" y="3599.09" type="priority"/>
    <node id="1027206189" x="6052.12" y="3927.04" type="priority"/>
    <node id="1027206220" x="6048.65" y="3938.11" type="priority"/>
    <node id="1027206224" x="5811.75" y="3860.62" type="priority"/>
    <node id="1027206267" x="5531.00" y="3769.39" type="priority"/>
    <node id="1027206271" x="5890.39" y="3827.78" type="right_before_left"/>
    <node id="1027206277" x="5771.01" y="3770.72" type="priority"/>
    <node id="1027206281" x="5713.63" y="3645.49" type="priority"/>
    <node id="1027206283" x="5879.87" y="4010.50" type="priority"/>
    <node id="1027206290" x="5977.67" y="3520.90" type="priority"/>
    <node id="1027206299" x="6112.36" y="4013.85" type="priority"/>
    <node id="1027206305" x="6065.69" y="3929.35" type="priority"/>
    <node id="1027206319" x="5824.80" y="3855.19" type="right_before_left"/>
    <node id="1027206332" x="6144.42" y="4004.04" type="priority"/>
    <node id="1027206342" x="5930.16" y="3862.16" type="priority"/>
    <node id="1027206348" x="6342.96" y="3927.13" type="priority"/>
    <node id="1027206357" x="5903.50" y="3938.80" type="priority"/>
    <node id="1027206362" x="5700.59" y="3604.53" type="priority"/>
    <node id="1027206372" x="5665.57" y="3771.40" type="priority"/>
    <node id="1027206373" x="5853.08" y="3895.54" type="priority"/>
    <node id="1027206384" x="5808.00" y="3690.36" type="priority"/>
    <node id="1027206388" x="5451.37" y="3768.19" type="priority"/>
    <node id="1027206408" x="5613.70" y="3981.39" type="priority"/>
    <node id="1027206412" x="6333.26" y="3927.17" type="priority"/>
    <node id="1027206436" x="6080.38" y="3926.19" type="priority"/>
    <node id="1027206438" x="5611.14" y="3770.59" type="priority"/>
    <node id="1027215170" x="6480.24" y="3285.30" type="priority"/>
    <node id="1027215175" x="6453.14" y="3217.79" type="priority"/>
    <node id="1027215193" x="6446.16" y="3200.65" type="priority"/>
    <node id="1027215201" x="6395.96" y="3364.62" type="priority"/>
    <node id="1027215203" x="6158.38" y="3077.32" type="priority"/>
    <node id="1027215207" x="6078.05" y="3172.52" type="priority"/>
    <node id="1027215214" x="6060.76" y="3549.78" type="priority"/>
    <node id="1027215218" x="6295.20" y="2993.06" type="priority"/>
    <node id="1027215219" x="6083.29" y="3161.18" type="priority"/>
    <node id="1027215220" x="6435.05" y="3374.54" type="priority"/>
    <node id="1027215222" x="6454.18" y="3202.99" type="priority"/>
    <node id="1027215246" x="6515.94" y="3393.95" type="priority"/>
    <node id="1027215255" x="6353.29" y="3190.34" type="priority"/>
    <node id="1027215265" x="6205.40" y="3422.15" type="priority"/>
    <node id="1027215267" x="6440.90" y="3216.49" type="priority"/>
    <node id="1027215276" x="6296.01" y="3340.50" type="priority"/>
    <node id="1027215282" x="6438.30" y="3210.42" type="priority"/>
    <node id="1027227027" x="6283.60" y="3605.82" type="right_before_left"/>
    <node id="1027227677" x="6604.72" y="2890.44" type="priority"/>
    <node id="1027227684" x="6466.54" y="3053.01" type="priority"/>
    <node id="10275471653" x="3592.29" y="3489.36" type="priority"/>
    <node id="10275471654" x="3592.24" y="3501.64" type="priority"/>
    <node id="10275471655" x="3592.33" y="3483.80" type="dead_end"/>
    <node id="10275471657" x="3603.68" y="3507.14" type="dead_end"/>
    <node id="10275471658" x="3603.96" y="3526.85" type="priority"/>
    <node id="10276330571" x="3638.34" y="1971.26" type="priority"/>
    <node id="10276330699" x="2968.79" y="2275.88" type="dead_end"/>
    <node id="10276330700" x="2950.54" y="2225.35" type="right_before_left"/>
    <node id="10276330701" x="2960.83" y="2255.77" type="dead_end"/>
    <node id="10276330704" x="2864.36" y="2287.14" type="priority"/>
    <node id="10304062555" x="2660.31" y="3360.86" type="right_before_left"/>
    <node id="10311336646" x="1742.00" y="2655.94" type="priority"/>
    <node id="10311336647" x="1719.03" y="2683.92" type="priority"/>
    <node id="10311433339" x="3752.18" y="614.81" type="right_before_left"/>
    <node id="10311433401" x="3724.54" y="602.64" type="priority"/>
    <node id="10311433403" x="3749.14" y="609.28" type="right_before_left"/>
    <node id="10311433404" x="3719.84" y="630.33" type="right_before_left"/>
    <node id="10311433411" x="3753.43" y="648.63" type="priority"/>
    <node id="10311433420" x="3827.11" y="562.67" type="right_before_left"/>
    <node id="10311433706" x="3433.08" y="1806.10" type="priority"/>
    <node id="10311433953" x="3705.60" y="2583.88" type="priority"/>
    <node id="10311434003" x="3623.26" y="1968.92" type="right_before_left"/>
    <node id="10313810558" x="4435.89" y="3701.28" type="right_before_left"/>
    <node id="10556451066" x="3561.31" y="3805.49" type="priority"/>
    <node id="10556451067" x="3984.15" y="3761.15" type="priority"/>
    <node id="10556451068" x="3984.57" y="3762.66" type="priority"/>
    <node id="10556451075" x="4347.36" y="3435.73" type="priority"/>
    <node id="10573075942" x="3137.91" y="3473.10" type="priority"/>
    <node id="10573075956" x="3160.37" y="3453.86" type="priority"/>
    <node id="10592302855" x="4451.72" y="3700.01" type="right_before_left"/>
    <node id="10592302861" x="4380.62" y="3521.43" type="priority"/>
    <node id="10671274912" x="5238.05" y="697.07" type="priority"/>
    <node id="10671330116" x="3595.38" y="2268.12" type="priority"/>
    <node id="10671330137" x="3366.37" y="2288.79" type="priority"/>
    <node id="10671330140" x="3452.55" y="2284.18" type="right_before_left"/>
    <node id="10671330142" x="3477.36" y="2276.67" type="priority"/>
    <node id="10671330145" x="3492.31" y="2269.01" type="priority"/>
    <node id="10784854461" x="2518.26" y="3649.34" type="priority"/>
    <node id="10784953194" x="2257.99" y="3381.52" type="priority"/>
    <node id="10784962805" x="2623.22" y="1811.99" type="priority"/>
    <node id="10852514621" x="4676.59" y="2502.05" type="right_before_left"/>
    <node id="10852514624" x="4642.47" y="2542.80" type="priority"/>
    <node id="10852514625" x="4646.27" y="2459.63" type="priority" fringe="inner">
        <param key="buffer_stop" value="true"/>
    </node>
    <node id="10852514626" x="4620.52" y="2496.88" type="priority" fringe="inner">
        <param key="buffer_stop" value="true"/>
    </node>
    <node id="10871523105" x="3154.11" y="3694.47" type="right_before_left"/>
    <node id="10871609156" x="2832.32" y="3577.37" type="dead_end"/>
    <node id="10871609157" x="2835.05" y="3590.03" type="dead_end"/>
    <node id="10871609162" x="2827.21" y="3555.02" type="dead_end"/>
    <node id="10871609164" x="2670.72" y="3545.90" type="right_before_left"/>
    <node id="10871609165" x="2708.22" y="3545.81" type="priority"/>
    <node id="10871609173" x="2413.90" y="3949.93" type="dead_end"/>
    <node id="10871609174" x="2426.38" y="3931.54" type="dead_end"/>
    <node id="10871609177" x="2688.65" y="3545.97" type="dead_end"/>
    <node id="10871609178" x="2683.87" y="3546.01" type="dead_end"/>
    <node id="10871609184" x="2516.31" y="3513.01" type="priority"/>
    <node id="10871609185" x="2522.28" y="3513.04" type="dead_end"/>
    <node id="10871609187" x="2527.88" y="3508.06" type="dead_end"/>
    <node id="10871609188" x="2526.94" y="3508.03" type="dead_end"/>
    <node id="10872765847" x="2530.95" y="3400.75" type="priority"/>
    <node id="10872765850" x="2246.03" y="2696.00" type="priority"/>
    <node id="10872765855" x="1943.64" y="2450.35" type="priority"/>
    <node id="10872765856" x="2003.43" y="2722.70" type="priority"/>
    <node id="10872765858" x="2388.61" y="2504.95" type="priority"/>
    <node id="10872765859" x="2389.30" y="2506.87" type="priority"/>
    <node id="10872765865" x="2510.99" y="2422.76" type="priority"/>
    <node id="10872765874" x="2456.76" y="2430.86" type="dead_end"/>
    <node id="10872765886" x="2188.59" y="2496.76" type="priority"/>
    <node id="10872849092" x="2763.09" y="2803.61" type="priority"/>
    <node id="10872849093" x="2812.58" y="2804.27" type="dead_end"/>
    <node id="10872849094" x="2833.69" y="2860.40" type="dead_end"/>
    <node id="10873090818" x="2132.11" y="3483.98" type="dead_end"/>
    <node id="10873090820" x="2122.52" y="3495.34" type="dead_end"/>
    <node id="10873090823" x="2056.32" y="3564.92" type="dead_end"/>
    <node id="10873090824" x="2114.43" y="3613.56" type="dead_end"/>
    <node id="10873090826" x="2115.27" y="3622.06" type="dead_end"/>
    <node id="10873090830" x="2063.46" y="3539.68" type="priority"/>
    <node id="10873090834" x="2262.02" y="2514.54" type="dead_end"/>
    <node id="10873345326" x="2258.02" y="3177.94" type="dead_end"/>
    <node id="10873345328" x="2774.78" y="2948.62" type="right_before_left"/>
    <node id="10873345331" x="3123.58" y="3111.21" type="priority"/>
    <node id="10873345333" x="2792.59" y="2954.84" type="priority"/>
    <node id="10873345351" x="2903.96" y="2457.83" type="priority"/>
    <node id="10873345352" x="2892.70" y="2458.01" type="dead_end"/>
    <node id="10873345362" x="2855.32" y="2352.17" type="dead_end"/>
    <node id="10873345366" x="2870.67" y="2423.34" type="dead_end"/>
    <node id="10873345368" x="2822.53" y="2426.93" type="dead_end"/>
    <node id="10873345370" x="2864.93" y="2423.04" type="dead_end"/>
    <node id="10873345371" x="2867.93" y="2430.61" type="dead_end"/>
    <node id="10873345373" x="2862.12" y="2464.25" type="dead_end"/>
    <node id="10873345374" x="2838.73" y="2470.30" type="dead_end"/>
    <node id="10873345377" x="2861.27" y="2444.19" type="dead_end"/>
    <node id="10873345378" x="2800.92" y="2402.89" type="right_before_left"/>
    <node id="10873345381" x="2841.83" y="2359.05" type="dead_end"/>
    <node id="10873345393" x="6032.17" y="4262.04" type="priority"/>
    <node id="10873345394" x="6061.52" y="4285.70" type="priority"/>
    <node id="10873345395" x="6116.35" y="4290.13" type="priority"/>
    <node id="10873345396" x="6370.52" y="4256.87" type="dead_end"/>
    <node id="10873345397" x="6359.93" y="4261.44" type="dead_end"/>
    <node id="10873345399" x="6356.47" y="4209.38" type="priority"/>
    <node id="10873345400" x="6310.47" y="4209.15" type="priority"/>
    <node id="10873345402" x="6224.76" y="4204.11" type="priority"/>
    <node id="10873345403" x="6235.01" y="4216.24" type="priority"/>
    <node id="10873345404" x="6182.17" y="4201.32" type="priority"/>
    <node id="10873359105" x="6092.83" y="4141.95" type="priority"/>
    <node id="10873359107" x="5959.00" y="4085.66" type="priority"/>
    <node id="10873359108" x="5913.84" y="4094.51" type="priority"/>
    <node id="10873359120" x="5625.72" y="4248.16" type="priority"/>
    <node id="10873359125" x="5561.00" y="4062.89" type="priority"/>
    <node id="10873359126" x="5578.57" y="4064.55" type="priority"/>
    <node id="10873359127" x="5622.62" y="4164.59" type="priority"/>
    <node id="10873359128" x="5614.23" y="4174.36" type="priority"/>
    <node id="10873359129" x="5635.43" y="4178.26" type="priority"/>
    <node id="10873359131" x="5578.37" y="4049.96" type="priority"/>
    <node id="10873359146" x="5879.68" y="4105.67" type="priority"/>
    <node id="10873359149" x="6346.20" y="4296.62" type="priority"/>
    <node id="10873359150" x="6341.47" y="4152.36" type="right_before_left"/>
    <node id="10873359153" x="6314.41" y="4120.70" type="priority"/>
    <node id="10873359154" x="5542.43" y="4079.94" type="priority"/>
    <node id="10873359156" x="5845.33" y="4282.50" type="priority"/>
    <node id="10873359161" x="5573.59" y="4270.38" type="dead_end"/>
    <node id="10873359165" x="5539.23" y="4274.56" type="priority"/>
    <node id="10873359172" x="5754.06" y="4292.61" type="dead_end"/>
    <node id="10873359179" x="5797.89" y="4297.57" type="dead_end"/>
    <node id="10873939491" x="2896.57" y="3473.17" type="dead_end"/>
    <node id="10873939492" x="2899.60" y="3473.17" type="dead_end"/>
    <node id="10875206640" x="7151.26" y="3878.40" type="priority"/>
    <node id="10882954138" x="2789.27" y="1235.79" type="priority"/>
    <node id="10885945066" x="3213.12" y="3115.88" type="traffic_light" tl="10885945066"/>
    <node id="10885945070" x="3626.07" y="3063.07" type="traffic_light" tl="10885945070"/>
    <node id="10886015430" x="3486.00" y="3567.77" type="priority"/>
    <node id="10886015434" x="3491.16" y="3560.20" type="priority"/>
    <node id="10886076235" x="2263.82" y="3197.01" type="priority"/>
    <node id="10886076245" x="2268.74" y="3227.29" type="dead_end"/>
    <node id="10896613557" x="4166.66" y="3623.62" type="priority"/>
    <node id="10896613568" x="4296.26" y="3503.91" type="priority"/>
    <node id="10896613569" x="4313.56" y="3503.80" type="dead_end"/>
    <node id="10899437200" x="2444.98" y="1592.79" type="right_before_left"/>
    <node id="10931414372" x="2542.21" y="3071.86" type="right_before_left"/>
    <node id="10931414373" x="2546.38" y="3110.14" type="priority"/>
    <node id="10931414375" x="2557.90" y="3129.79" type="priority"/>
    <node id="10936686336" x="6910.57" y="2617.09" type="priority"/>
    <node id="10938975056" x="7218.38" y="2535.42" type="right_before_left"/>
    <node id="10938975082" x="8260.62" y="2308.20" type="priority"/>
    <node id="10979229330" x="2675.25" y="3532.75" type="right_before_left"/>
    <node id="10979229331" x="2667.87" y="3528.90" type="dead_end"/>
    <node id="10979514603" x="2263.67" y="2924.20" type="priority"/>
    <node id="10979514604" x="2350.22" y="2965.94" type="right_before_left"/>
    <node id="10979547117" x="2665.31" y="3527.72" type="dead_end"/>
    <node id="10979547118" x="2649.79" y="3604.32" type="priority"/>
    <node id="10979547120" x="2641.64" y="3540.69" type="priority"/>
    <node id="10979547122" x="2633.55" y="3516.71" type="priority"/>
    <node id="10979547127" x="2770.06" y="3509.01" type="priority"/>
    <node id="10979547128" x="2792.27" y="3554.77" type="dead_end"/>
    <node id="10979547129" x="2792.60" y="3549.65" type="dead_end"/>
    <node id="10979547132" x="2799.14" y="3515.14" type="dead_end"/>
    <node id="10979547133" x="2892.29" y="3473.11" type="priority"/>
    <node id="10979547134" x="3090.65" y="3569.90" type="right_before_left"/>
    <node id="10979547139" x="3084.34" y="3477.64" type="priority"/>
    <node id="10979547140" x="3236.27" y="3445.51" type="priority"/>
    <node id="10979547148" x="3256.97" y="3451.74" type="right_before_left"/>
    <node id="10979547152" x="3362.75" y="2370.96" type="dead_end"/>
    <node id="10979596305" x="2341.60" y="2911.47" type="priority"/>
    <node id="10982874734" x="4647.29" y="2255.53" type="right_before_left"/>
    <node id="10989598782" x="6304.48" y="2183.67" type="priority"/>
    <node id="10989598783" x="6311.74" y="2248.78" type="right_before_left"/>
    <node id="10989598787" x="6259.10" y="2205.63" type="right_before_left"/>
    <node id="10989598788" x="6221.80" y="2126.96" type="priority"/>
    <node id="10989618333" x="6205.80" y="2234.19" type="right_before_left"/>
    <node id="10992657832" x="2429.06" y="3750.49" type="right_before_left"/>
    <node id="10992657833" x="2387.57" y="3719.57" type="right_before_left"/>
    <node id="10992657834" x="2345.94" y="3762.88" type="priority"/>
    <node id="10992657835" x="2396.28" y="3763.91" type="right_before_left"/>
    <node id="10992657836" x="2391.55" y="3750.53" type="priority"/>