<?xml version="1.0" encoding="UTF-8"?>

<!-- generated on 2025-04-04 16:25:12 by Eclipse SUMO netconvert Version 1.19.0
<configuration xmlns:xsi="http://www.w3.org/2001/XMLSchema-instance" xsi:noNamespaceSchemaLocation="http://sumo.dlr.de/xsd/netconvertConfiguration.xsd">

    <input>
        <sumo-net-file value="plaisir/plaisir.net.xml"/>
    </input>

    <output>
        <plain-output-prefix value="plaisir/plaisir"/>
    </output>

    <processing>
        <geometry.min-radius.fix.railways value="false"/>
        <geometry.max-grade.fix value="false"/>
        <offset.disable-normalization value="true"/>
        <lefthand value="0"/>
    </processing>

    <tls_building>
        <tls.ignore-internal-junction-jam value="1"/>
    </tls_building>

    <junctions>
        <no-turnarounds value="true"/>
        <junctions.corner-detail value="5"/>
        <junctions.limit-turn-speed value="5.50"/>
        <rectangular-lane-cut value="0"/>
    </junctions>

    <pedestrian>
        <walkingareas value="0"/>
    </pedestrian>

</configuration>
-->

<connections version="1.16" xmlns:xsi="http://www.w3.org/2001/XMLSchema-instance" xsi:noNamespaceSchemaLocation="http://sumo.dlr.de/xsd/connections_file.xsd">
    <connection from="-1000357709" to="-464613028#9" fromLane="0" toLane="0"/>
    <connection from="-1000357709" to="884856936" fromLane="0" toLane="0"/>
    <connection from="-1000357709" to="464613028#11" fromLane="0" toLane="0"/>
    <connection from="-1000357709" to="1000357709" fromLane="0" toLane="0"/>

    <connection from="-100100940" to="88439575#1" fromLane="0" toLane="0"/>
    <connection from="-100100940" to="-88439575#0" fromLane="0" toLane="0"/>
    <connection from="-100100940" to="100100940" fromLane="0" toLane="0"/>

    <connection from="-100100941" to="-88439558#10" fromLane="0" toLane="0"/>
    <connection from="-100100941" to="88439558#11" fromLane="0" toLane="0"/>
    <connection from="-100100941" to="100100941" fromLane="0" toLane="0"/>

    <connection from="-100100951#0" to="88440384#2" fromLane="0" toLane="0"/>
    <connection from="-100100951#0" to="100101560" fromLane="0" toLane="0"/>
    <connection from="-100100951#0" to="-88440384#0" fromLane="0" toLane="0"/>
    <connection from="-100100951#0" to="100100951#0" fromLane="0" toLane="0"/>

    <connection from="-100100951#1" to="-100100951#0" fromLane="0" toLane="0"/>
    <connection from="-100100951#1" to="100100951#1" fromLane="0" toLane="0"/>

    <connection from="-100100951#2" to="-100100951#1" fromLane="0" toLane="0"/>
    <connection from="-100100951#2" to="-100100953#1" fromLane="0" toLane="0"/>
    <connection from="-100100951#2" to="100100951#2" fromLane="0" toLane="0"/>

    <connection from="-100100951#4" to="100100949" fromLane="0" toLane="0"/>
    <connection from="-100100951#4" to="-100100951#2" fromLane="0" toLane="0"/>
    <connection from="-100100951#4" to="100100953#0" fromLane="0" toLane="0"/>
    <connection from="-100100951#4" to="100100951#4" fromLane="0" toLane="0"/>

    <connection from="-100100952#0" to="1288203065#1" fromLane="0" toLane="0"/>
    <connection from="-100100952#0" to="100100952#0" fromLane="0" toLane="0"/>

    <connection from="-100100952#1" to="-100100952#0" fromLane="0" toLane="0"/>

    <connection from="-100100952#2" to="-100100952#1" fromLane="0" toLane="0"/>

    <connection from="-100100952#3" to="-100100952#2" fromLane="0" toLane="0"/>
    <connection from="-100100952#3" to="598551561#1" fromLane="0" toLane="0"/>

    <connection from="-100100953#0" to="100100951#4" fromLane="0" toLane="0"/>
    <connection from="-100100953#0" to="100100949" fromLane="0" toLane="0"/>
    <connection from="-100100953#0" to="-100100951#2" fromLane="0" toLane="0"/>
    <connection from="-100100953#0" to="100100953#0" fromLane="0" toLane="0"/>

    <connection from="-100100953#1" to="-100100953#0" fromLane="0" toLane="0"/>

    <connection from="-100101558#0" to="-88439554" fromLane="0" toLane="0"/>
    <connection from="-100101558#0" to="100101559#1" fromLane="0" toLane="0"/>
    <connection from="-100101558#0" to="100101558#0" fromLane="0" toLane="0"/>

    <connection from="-100101558#2" to="88439557" fromLane="0" toLane="0"/>
    <connection from="-100101558#2" to="-100101558#0" fromLane="0" toLane="0"/>
    <connection from="-100101558#2" to="1346953956" fromLane="0" toLane="0"/>
    <connection from="-100101558#2" to="100101558#2" fromLane="0" toLane="0"/>

    <connection from="-100101558#3" to="88439571" fromLane="0" toLane="0"/>
    <connection from="-100101558#3" to="-100101558#2" fromLane="0" toLane="0"/>
    <connection from="-100101558#3" to="100101558#3" fromLane="0" toLane="0"/>

    <connection from="-100101558#5" to="-88439566" fromLane="0" toLane="0"/>
    <connection from="-100101558#5" to="-100101558#3" fromLane="0" toLane="0"/>
    <connection from="-100101558#5" to="1346953947" fromLane="0" toLane="0"/>
    <connection from="-100101558#5" to="100101558#5" fromLane="0" toLane="0"/>

    <connection from="-100101559#1" to="100101558#0" fromLane="0" toLane="0"/>
    <connection from="-100101559#1" to="-88439554" fromLane="0" toLane="0"/>
    <connection from="-100101559#1" to="100101559#1" fromLane="0" toLane="0"/>

    <connection from="-100101561" to="100100944" fromLane="0" toLane="0"/>
    <connection from="-100101561" to="100101561" fromLane="0" toLane="0"/>

    <connection from="-100101562" to="-100132093#0" fromLane="0" toLane="0"/>
    <connection from="-100101562" to="-88439571" fromLane="0" toLane="0"/>
    <connection from="-100101562" to="100132093#1" fromLane="0" toLane="0"/>
    <connection from="-100101562" to="100101562" fromLane="0" toLane="0"/>

    <connection from="-100101563" to="-1288203066" fromLane="0" toLane="0"/>
    <connection from="-100101563" to="-88440385#1" fromLane="0" toLane="0"/>
    <connection from="-100101563" to="100103245#1" fromLane="0" toLane="0"/>
    <connection from="-100101563" to="100101563" fromLane="0" toLane="0"/>

    <connection from="-100101564" to="-100101558#5" fromLane="0" toLane="0"/>
    <connection from="-100101564" to="997771259#0" fromLane="0" toLane="0"/>
    <connection from="-100101564" to="100101564" fromLane="0" toLane="0"/>

    <connection from="-100101655" to="-99939355#1" fromLane="0" toLane="0"/>

    <connection from="-100103248#0" to="-88440383#10" fromLane="0" toLane="0"/>

    <connection from="-100103248#1" to="106606705" fromLane="0" toLane="0"/>
    <connection from="-100103248#1" to="-100103248#0" fromLane="0" toLane="0"/>
    <connection from="-100103248#1" to="100103248#1" fromLane="0" toLane="0"/>

    <connection from="-100103248#2" to="-100103248#1" fromLane="0" toLane="0"/>

    <connection from="-100103248#3" to="-100103248#2" fromLane="0" toLane="0"/>
    <connection from="-100103248#3" to="100103248#3" fromLane="0" toLane="0"/>

    <connection from="-100103248#4" to="88440381" fromLane="0" toLane="0"/>
    <connection from="-100103248#4" to="-100103248#3" fromLane="0" toLane="0"/>
    <connection from="-100103248#4" to="100103248#4" fromLane="0" toLane="0"/>

    <connection from="-100119051#0" to="88439560#1" fromLane="0" toLane="0"/>
    <connection from="-100119051#0" to="-1281762889" fromLane="0" toLane="0"/>
    <connection from="-100119051#0" to="100119051#0" fromLane="0" toLane="0"/>

    <connection from="-100119051#1" to="-100119051#0" fromLane="0" toLane="0"/>
    <connection from="-100119051#1" to="100119052#0" fromLane="0" toLane="0"/>
    <connection from="-100119051#1" to="100119051#1" fromLane="0" toLane="0"/>

    <connection from="-100119051#2" to="-100119051#1" fromLane="0" toLane="0"/>
    <connection from="-100119051#2" to="100119051#2" fromLane="0" toLane="0"/>

    <connection from="-100119051#3" to="-100119051#2" fromLane="0" toLane="0"/>

    <connection from="-100119051#4" to="602268651" fromLane="0" toLane="0"/>
    <connection from="-100119051#4" to="-100119051#3" fromLane="0" toLane="0"/>

    <connection from="-100123077" to="-88440380#2" fromLane="0" toLane="0"/>
    <connection from="-100123077" to="88440380#3" fromLane="0" toLane="0"/>
    <connection from="-100123077" to="100123077" fromLane="0" toLane="0"/>

    <connection from="-100123078#0" to="88440380#2" fromLane="0" toLane="0"/>
    <connection from="-100123078#0" to="-88440380#1" fromLane="0" toLane="0"/>
    <connection from="-100123078#0" to="100123078#0" fromLane="0" toLane="0"/>

    <connection from="-100123078#1" to="-100123078#0" fromLane="0" toLane="0"/>
    <connection from="-100123078#1" to="100123080" fromLane="0" toLane="0"/>
    <connection from="-100123078#1" to="100123078#1" fromLane="0" toLane="0"/>

    <connection from="-100123079" to="88440380#1" fromLane="0" toLane="0"/>
    <connection from="-100123079" to="-88440380#0" fromLane="0" toLane="0"/>
    <connection from="-100123079" to="100123079" fromLane="0" toLane="0"/>

    <connection from="-100123080" to="100123078#1" fromLane="0" toLane="0"/>
    <connection from="-100123080" to="-100123078#0" fromLane="0" toLane="0"/>
    <connection from="-100123080" to="100123080" fromLane="0" toLane="0"/>

    <connection from="-100123081#0" to="-100132095#4" fromLane="0" toLane="0"/>
    <connection from="-100123081#0" to="100132095#5" fromLane="0" toLane="0"/>
    <connection from="-100123081#0" to="100123081#0" fromLane="0" toLane="0"/>

    <connection from="-100123081#1" to="100123082#0" fromLane="0" toLane="0"/>
    <connection from="-100123081#1" to="-100123081#0" fromLane="0" toLane="0"/>
    <connection from="-100123081#1" to="100123081#1" fromLane="0" toLane="0"/>

    <connection from="-100123081#2" to="-100123081#1" fromLane="0" toLane="0"/>

    <connection from="-100123081#3" to="-100123081#2" fromLane="0" toLane="0"/>

    <connection from="-100123082#0" to="-100123081#0" fromLane="0" toLane="0"/>
    <connection from="-100123082#0" to="100123081#1" fromLane="0" toLane="0"/>
    <connection from="-100123082#0" to="100123082#0" fromLane="0" toLane="0"/>

    <connection from="-100123082#1" to="-100123082#0" fromLane="0" toLane="0"/>

    <connection from="-100126496" to="100126502#1" fromLane="0" toLane="0"/>
    <connection from="-100126496" to="-100126502#0" fromLane="0" toLane="0"/>
    <connection from="-100126496" to="100126496" fromLane="0" toLane="0"/>

    <connection from="-100126497#0" to="100126511" fromLane="0" toLane="0" keepClear="0"/>

    <connection from="-100126497#1" to="-100126497#0" fromLane="0" toLane="0"/>
    <connection from="-100126497#1" to="100127850" fromLane="0" toLane="0"/>
    <connection from="-100126497#1" to="100126497#1" fromLane="0" toLane="0"/>

    <connection from="-100126497#2" to="-100126497#1" fromLane="0" toLane="0"/>
    <connection from="-100126497#2" to="100126509" fromLane="0" toLane="0"/>
    <connection from="-100126497#2" to="100126497#2" fromLane="0" toLane="0"/>

    <connection from="-100126497#3" to="-100126497#2" fromLane="0" toLane="0"/>
    <connection from="-100126497#3" to="100126505" fromLane="0" toLane="0"/>
    <connection from="-100126497#3" to="100126497#3" fromLane="0" toLane="0"/>

    <connection from="-100126502#0" to="100103249#3" fromLane="0" toLane="0"/>
    <connection from="-100126502#0" to="100103247#2" fromLane="0" toLane="0"/>
    <connection from="-100126502#0" to="100126502#0" fromLane="0" toLane="0"/>

    <connection from="-100126502#1" to="-100126502#0" fromLane="0" toLane="0"/>
    <connection from="-100126502#1" to="100126496" fromLane="0" toLane="0"/>
    <connection from="-100126502#1" to="100126502#1" fromLane="0" toLane="0"/>

    <connection from="-100126502#2" to="-100126502#1" fromLane="0" toLane="0"/>

    <connection from="-100126502#3" to="-100126502#2" fromLane="0" toLane="0"/>
    <connection from="-100126502#3" to="100126507" fromLane="0" toLane="0"/>
    <connection from="-100126502#3" to="100126502#3" fromLane="0" toLane="0"/>

    <connection from="-100126502#4" to="-100126502#3" fromLane="0" toLane="0"/>
    <connection from="-100126502#4" to="-100126502#5" fromLane="0" toLane="0"/>
    <connection from="-100126502#4" to="100126502#4" fromLane="0" toLane="0"/>

    <connection from="-100126502#5" to="-100126502#4" fromLane="0" toLane="0"/>

    <connection from="-100126505" to="100126497#3" fromLane="0" toLane="0"/>
    <connection from="-100126505" to="-100126497#2" fromLane="0" toLane="0"/>
    <connection from="-100126505" to="100126505" fromLane="0" toLane="0"/>

    <connection from="-100126507" to="100126502#3" fromLane="0" toLane="0"/>
    <connection from="-100126507" to="-100126502#2" fromLane="0" toLane="0"/>
    <connection from="-100126507" to="100126507" fromLane="0" toLane="0"/>

    <connection from="-100126509" to="100126497#2" fromLane="0" toLane="0"/>
    <connection from="-100126509" to="-100126497#1" fromLane="0" toLane="0"/>
    <connection from="-100126509" to="100126509" fromLane="0" toLane="0"/>

    <connection from="-100126511" to="100126497#0" fromLane="0" toLane="0"/>
    <connection from="-100126511" to="100126511" fromLane="0" toLane="0"/>

    <connection from="-100127850" to="100126497#1" fromLane="0" toLane="0"/>
    <connection from="-100127850" to="-100126497#0" fromLane="0" toLane="0"/>
    <connection from="-100127850" to="100127850" fromLane="0" toLane="0"/>

    <connection from="-100132093#0" to="100132094" fromLane="0" toLane="0"/>
    <connection from="-100132093#0" to="100132093#0" fromLane="0" toLane="0"/>

    <connection from="-100132093#1" to="100101562" fromLane="0" toLane="0"/>
    <connection from="-100132093#1" to="-100132093#0" fromLane="0" toLane="0"/>
    <connection from="-100132093#1" to="-88439571" fromLane="0" toLane="0"/>
    <connection from="-100132093#1" to="100132093#1" fromLane="0" toLane="0"/>

    <connection from="-100132093#2" to="-100132093#1" fromLane="0" toLane="0"/>
    <connection from="-100132093#2" to="88439566" fromLane="0" toLane="0"/>
    <connection from="-100132093#2" to="100132093#2" fromLane="0" toLane="0"/>

    <connection from="-100132095#1" to="-1288203063#1" fromLane="0" toLane="0"/>
    <connection from="-100132095#1" to="100132095#1" fromLane="0" toLane="0"/>

    <connection from="-100132095#10" to="-88439548#1" fromLane="0" toLane="0"/>
    <connection from="-100132095#10" to="-100132095#9" fromLane="0" toLane="0"/>
    <connection from="-100132095#10" to="100132095#10" fromLane="0" toLane="0"/>

    <connection from="-100132095#11" to="-100132095#10" fromLane="0" toLane="0"/>
    <connection from="-100132095#11" to="88439554" fromLane="0" toLane="0"/>
    <connection from="-100132095#11" to="100132095#11" fromLane="0" toLane="0"/>

    <connection from="-100132095#2" to="-100132095#1" fromLane="0" toLane="0"/>
    <connection from="-100132095#2" to="-1329682304" fromLane="0" toLane="0"/>

    <connection from="-100132095#3" to="-100132095#2" fromLane="0" toLane="0"/>

    <connection from="-100132095#4" to="316444200#0" fromLane="0" toLane="0"/>
    <connection from="-100132095#4" to="-100132095#3" fromLane="0" toLane="0"/>
    <connection from="-100132095#4" to="100132095#4" fromLane="0" toLane="0"/>

    <connection from="-100132095#5" to="100123081#0" fromLane="0" toLane="0"/>
    <connection from="-100132095#5" to="-100132095#4" fromLane="0" toLane="0"/>
    <connection from="-100132095#5" to="100132095#5" fromLane="0" toLane="0"/>

    <connection from="-100132095#8" to="-88439552#2" fromLane="0" toLane="0"/>
    <connection from="-100132095#8" to="-100132095#5" fromLane="0" toLane="0"/>
    <connection from="-100132095#8" to="-88439564#2" fromLane="0" toLane="0"/>
    <connection from="-100132095#8" to="88439553#1" fromLane="0" toLane="0"/>
    <connection from="-100132095#8" to="100132095#8" fromLane="0" toLane="0"/>

    <connection from="-100132095#9" to="-88439565#1" fromLane="0" toLane="0"/>
    <connection from="-100132095#9" to="-100132095#8" fromLane="0" toLane="0"/>
    <connection from="-100132095#9" to="100132095#9" fromLane="0" toLane="0"/>

    <connection from="-100142544" to="99939358#3" fromLane="0" toLane="0"/>
    <connection from="-100142544" to="-99939358#2" fromLane="0" toLane="0"/>
    <connection from="-100142544" to="100142544" fromLane="0" toLane="0"/>

    <connection from="-1002022805#2" to="-290304847#2" fromLane="0" toLane="0"/>

    <connection from="-1002022806#2" to="-44419254#4" fromLane="0" toLane="0"/>

    <connection from="-1002022807" to="-1002022809" fromLane="0" toLane="0"/>
    <connection from="-1002022807" to="-1002022809" fromLane="0" toLane="1"/>

    <connection from="-1002022808#2" to="-620120799" fromLane="0" toLane="0"/>
    <connection from="-1002022808#2" to="447053041#1" fromLane="0" toLane="0"/>
    <connection from="-1002022808#2" to="1334581273#1" fromLane="0" toLane="0"/>
    <connection from="-1002022808#2" to="-23748761#1" fromLane="0" toLane="0"/>
    <connection from="-1002022808#2" to="23748761#3" fromLane="0" toLane="0"/>

    <connection from="-1002022808#3" to="1334581272#1" fromLane="0" toLane="0"/>
    <connection from="-1002022808#3" to="-1002022808#2" fromLane="0" toLane="0"/>
    <connection from="-1002022808#3" to="-1334581272#0" fromLane="0" toLane="0"/>

    <connection from="-1002022809" to="-1002022805#2" fromLane="0" toLane="0"/>
    <connection from="-1002022809" to="-1002022806#2" fromLane="1" toLane="0"/>
    <connection from="-1002022809" to="1002022809" fromLane="1" toLane="1"/>

    <connection from="-100282772" to="-100282774#1" fromLane="0" toLane="0"/>
    <connection from="-100282772" to="100282774#2" fromLane="0" toLane="0"/>
    <connection from="-100282772" to="100282772" fromLane="0" toLane="0"/>

    <connection from="-100282774#0" to="88440385#1" fromLane="0" toLane="0"/>
    <connection from="-100282774#0" to="-88440385#0" fromLane="0" toLane="0"/>
    <connection from="-100282774#0" to="100282774#0" fromLane="0" toLane="0"/>

    <connection from="-100282774#1" to="-100282774#0" fromLane="0" toLane="0"/>
    <connection from="-100282774#1" to="-100282774#3" fromLane="0" toLane="0"/>
    <connection from="-100282774#1" to="100282774#1" fromLane="0" toLane="0"/>

    <connection from="-100282774#2" to="100282772" fromLane="0" toLane="0"/>
    <connection from="-100282774#2" to="-100282774#1" fromLane="0" toLane="0"/>
    <connection from="-100282774#2" to="100282774#2" fromLane="0" toLane="0"/>

    <connection from="-100282774#3" to="100282778" fromLane="0" toLane="0"/>
    <connection from="-100282774#3" to="-100282774#2" fromLane="0" toLane="0"/>
    <connection from="-100282774#3" to="100282774#3" fromLane="0" toLane="0"/>

    <connection from="-100282778" to="-100282774#2" fromLane="0" toLane="0"/>
    <connection from="-100282778" to="100282774#3" fromLane="0" toLane="0"/>
    <connection from="-100282778" to="100282778" fromLane="0" toLane="0"/>

    <connection from="-100300038#0" to="100300038#0" fromLane="0" toLane="0"/>

    <connection from="-100300038#1" to="-100300038#0" fromLane="0" toLane="0"/>

    <connection from="-100300038#2" to="-100300038#1" fromLane="0" toLane="0"/>

    <connection from="-100300038#3" to="-109127764" fromLane="0" toLane="0"/>
    <connection from="-100300038#3" to="-100300038#2" fromLane="0" toLane="0"/>
    <connection from="-100300038#3" to="100300038#3" fromLane="0" toLane="0"/>

    <connection from="-100300038#4" to="-100300038#3" fromLane="0" toLane="0"/>
    <connection from="-100300038#4" to="-109127766" fromLane="0" toLane="0"/>
    <connection from="-100300038#4" to="100300038#4" fromLane="0" toLane="0"/>

    <connection from="-100300038#6" to="-109127763" fromLane="0" toLane="0"/>
    <connection from="-100300038#6" to="-100300038#4" fromLane="0" toLane="0"/>
    <connection from="-100300038#6" to="-109127765" fromLane="0" toLane="0"/>
    <connection from="-100300038#6" to="100300038#6" fromLane="0" toLane="0"/>

    <connection from="-100376010" to="-510762961" fromLane="0" toLane="0"/>
    <connection from="-100376010" to="100376019" fromLane="0" toLane="0"/>
    <connection from="-100376010" to="100376010" fromLane="0" toLane="0"/>

    <connection from="-100376012" to="100380482#2" fromLane="0" toLane="0"/>
    <connection from="-100376012" to="-100380482#1" fromLane="0" toLane="0"/>
    <connection from="-100376012" to="100376012" fromLane="0" toLane="0"/>

    <connection from="-100376019" to="100376010" fromLane="0" toLane="0"/>
    <connection from="-100376019" to="-510762961" fromLane="0" toLane="0"/>
    <connection from="-100376019" to="100376019" fromLane="0" toLane="0"/>

    <connection from="-100380474#0" to="356792291#2" fromLane="0" toLane="0" visibility="9.00"/>

    <connection from="-100380474#1" to="-102145981#4" fromLane="0" toLane="0"/>
    <connection from="-100380474#1" to="-100380474#0" fromLane="0" toLane="0"/>
    <connection from="-100380474#1" to="100380474#1" fromLane="0" toLane="0"/>

    <connection from="-100380482#0" to="100376004" fromLane="0" toLane="0"/>
    <connection from="-100380482#0" to="100380482#0" fromLane="0" toLane="0"/>

    <connection from="-100380482#1" to="-100380482#0" fromLane="0" toLane="0"/>
    <connection from="-100380482#1" to="603748042#0" fromLane="0" toLane="0"/>

    <connection from="-100380482#2" to="-100380482#1" fromLane="0" toLane="0"/>
    <connection from="-100380482#2" to="100376012" fromLane="0" toLane="0"/>

    <connection from="-101345925" to="251991969#1" fromLane="0" toLane="0"/>
    <connection from="-101345925" to="-51107882#3" fromLane="0" toLane="0"/>
    <connection from="-101345925" to="-251991969#0" fromLane="0" toLane="0"/>
    <connection from="-101345925" to="101345925" fromLane="0" toLane="0"/>

    <connection from="-101345926#0" to="101345931#4" fromLane="0" toLane="0"/>
    <connection from="-101345926#0" to="-51107868#2" fromLane="0" toLane="0"/>
    <connection from="-101345926#0" to="-101345931#3" fromLane="0" toLane="0"/>
    <connection from="-101345926#0" to="101345926#0" fromLane="0" toLane="0"/>

    <connection from="-101345926#1" to="-329703735#1" fromLane="0" toLane="0"/>
    <connection from="-101345926#1" to="-101345926#0" fromLane="0" toLane="0"/>
    <connection from="-101345926#1" to="101345926#1" fromLane="0" toLane="0"/>

    <connection from="-101345926#2" to="-101345926#1" fromLane="0" toLane="0"/>
    <connection from="-101345926#2" to="-51107870#1" fromLane="0" toLane="0"/>
    <connection from="-101345926#2" to="101345926#2" fromLane="0" toLane="0"/>

    <connection from="-101345928#0" to="53471788#3" fromLane="0" toLane="0"/>
    <connection from="-101345928#0" to="-53471788#2" fromLane="0" toLane="0"/>
    <connection from="-101345928#0" to="101345928#0" fromLane="0" toLane="0"/>

    <connection from="-101345928#2" to="-101345928#0" fromLane="0" toLane="0"/>
    <connection from="-101345928#2" to="101345928#2" fromLane="0" toLane="0"/>

    <connection from="-101345928#3" to="-101345928#2" fromLane="0" toLane="0"/>
    <connection from="-101345928#3" to="101345928#3" fromLane="0" toLane="0"/>

    <connection from="-101345928#4" to="234015935#0" fromLane="0" toLane="0"/>
    <connection from="-101345928#4" to="-101345928#3" fromLane="0" toLane="0"/>
    <connection from="-101345928#4" to="101345928#4" fromLane="0" toLane="0"/>

    <connection from="-101345930#0" to="51107884#1" fromLane="0" toLane="0"/>
    <connection from="-101345930#0" to="-51107884#0" fromLane="0" toLane="0"/>
    <connection from="-101345930#0" to="-68452621" fromLane="0" toLane="0"/>
    <connection from="-101345930#0" to="101345930#0" fromLane="0" toLane="0"/>

    <connection from="-101345930#1" to="-101345930#0" fromLane="0" toLane="0"/>
    <connection from="-101345930#1" to="-161570280#1" fromLane="0" toLane="0"/>
    <connection from="-101345930#1" to="101345930#1" fromLane="0" toLane="0"/>

    <connection from="-101345930#2" to="-101345930#1" fromLane="0" toLane="0"/>
    <connection from="-101345930#2" to="-316439267" fromLane="0" toLane="0"/>
    <connection from="-101345930#2" to="101345930#2" fromLane="0" toLane="0"/>

    <connection from="-101345931#0" to="51107884#0" fromLane="0" toLane="0"/>
    <connection from="-101345931#0" to="-51107863" fromLane="0" toLane="0"/>
    <connection from="-101345931#0" to="101345931#0" fromLane="0" toLane="0"/>

    <connection from="-101345931#1" to="68452621" fromLane="0" toLane="0"/>
    <connection from="-101345931#1" to="-101345931#0" fromLane="0" toLane="0"/>
    <connection from="-101345931#1" to="101345931#1" fromLane="0" toLane="0"/>

    <connection from="-101345931#10" to="51107871#0" fromLane="0" toLane="0"/>
    <connection from="-101345931#10" to="-101345931#9" fromLane="0" toLane="0"/>
    <connection from="-101345931#10" to="101345931#10" fromLane="0" toLane="0"/>

    <connection from="-101345931#2" to="-101345931#1" fromLane="0" toLane="0"/>
    <connection from="-101345931#2" to="-53471948#1" fromLane="0" toLane="0"/>
    <connection from="-101345931#2" to="101345931#2" fromLane="0" toLane="0"/>

    <connection from="-101345931#3" to="161570280#0" fromLane="0" toLane="0"/>
    <connection from="-101345931#3" to="-101345931#2" fromLane="0" toLane="0"/>
    <connection from="-101345931#3" to="101345931#3" fromLane="0" toLane="0"/>

    <connection from="-101345931#4" to="-51107868#2" fromLane="0" toLane="0"/>
    <connection from="-101345931#4" to="-101345931#3" fromLane="0" toLane="0"/>
    <connection from="-101345931#4" to="101345926#0" fromLane="0" toLane="0"/>
    <connection from="-101345931#4" to="101345931#4" fromLane="0" toLane="0"/>

    <connection from="-101345931#5" to="234000571#0" fromLane="0" toLane="0"/>
    <connection from="-101345931#5" to="-101345931#4" fromLane="0" toLane="0"/>
    <connection from="-101345931#5" to="101345931#5" fromLane="0" toLane="0"/>

    <connection from="-101345931#6" to="236056789#2" fromLane="0" toLane="0"/>
    <connection from="-101345931#6" to="-236056789#1" fromLane="0" toLane="0"/>
    <connection from="-101345931#6" to="-101345931#5" fromLane="0" toLane="0"/>
    <connection from="-101345931#6" to="101345931#6" fromLane="0" toLane="0"/>

    <connection from="-101345931#7" to="-101345931#6" fromLane="0" toLane="0"/>
    <connection from="-101345931#7" to="329703735#0" fromLane="0" toLane="0"/>
    <connection from="-101345931#7" to="101345931#7" fromLane="0" toLane="0"/>

    <connection from="-101345931#8" to="-101345931#7" fromLane="0" toLane="0"/>
    <connection from="-101345931#8" to="-910746190" fromLane="0" toLane="0"/>
    <connection from="-101345931#8" to="101345931#8" fromLane="0" toLane="0"/>

    <connection from="-101345931#9" to="-101345931#8" fromLane="0" toLane="0"/>
    <connection from="-101345931#9" to="251994804" fromLane="0" toLane="0"/>
    <connection from="-101345931#9" to="101345931#9" fromLane="0" toLane="0"/>

    <connection from="-101345932" to="53471788#0" fromLane="0" toLane="0" keepClear="0"/>

    <connection from="-102007807" to="-102173037#7" fromLane="0" toLane="0"/>
    <connection from="-102007807" to="102173037#8" fromLane="0" toLane="0"/>
    <connection from="-102007807" to="102007807" fromLane="0" toLane="0"/>

    <connection from="-102008887" to="-102173037#2" fromLane="0" toLane="0"/>
    <connection from="-102008887" to="102173037#3" fromLane="0" toLane="0"/>
    <connection from="-102008887" to="102008887" fromLane="0" toLane="0"/>

    <connection from="-102067738" to="102067738" fromLane="0" toLane="0"/>

    <connection from="-102067761" to="1118041381#0" fromLane="0" toLane="0"/>
    <connection from="-102067761" to="102067761" fromLane="0" toLane="0"/>

    <connection from="-102077245#0" to="22492947" fromLane="0" toLane="0"/>
    <connection from="-102077245#0" to="102077245#0" fromLane="0" toLane="0"/>

    <connection from="-102077245#1" to="206157068#20" fromLane="0" toLane="0"/>
    <connection from="-102077245#1" to="-102077245#0" fromLane="0" toLane="0"/>
    <connection from="-102077245#1" to="-206157068#19" fromLane="0" toLane="0"/>

    <connection from="-102077247#0" to="102067740#0" fromLane="0" toLane="0"/>
    <connection from="-102077247#0" to="102077253#0" fromLane="0" toLane="0"/>
    <connection from="-102077247#0" to="102077247#0" fromLane="0" toLane="0"/>

    <connection from="-102077247#1" to="102081711" fromLane="0" toLane="0"/>
    <connection from="-102077247#1" to="-102077247#0" fromLane="0" toLane="0"/>
    <connection from="-102077247#1" to="102077247#1" fromLane="0" toLane="0"/>

    <connection from="-102077247#2" to="-102077247#1" fromLane="0" toLane="0"/>

    <connection from="-102077248#0" to="-178545936" fromLane="0" toLane="0"/>
    <connection from="-102077248#0" to="367420632#0" fromLane="0" toLane="0"/>
    <connection from="-102077248#0" to="53470272#0" fromLane="0" toLane="0"/>
    <connection from="-102077248#0" to="102077248#0" fromLane="0" toLane="0"/>

    <connection from="-102077248#1" to="-102077248#0" fromLane="0" toLane="0"/>
    <connection from="-102077248#1" to="102077248#1" fromLane="0" toLane="0"/>

    <connection from="-102077248#2" to="53471488" fromLane="0" toLane="0"/>
    <connection from="-102077248#2" to="-102077248#1" fromLane="0" toLane="0"/>
    <connection from="-102077248#2" to="102077248#2" fromLane="0" toLane="0"/>

    <connection from="-102077248#3" to="-102077248#2" fromLane="0" toLane="0"/>
    <connection from="-102077248#3" to="102077248#3" fromLane="0" toLane="0"/>

    <connection from="-102077248#4" to="-53471476#2" fromLane="0" toLane="0"/>
    <connection from="-102077248#4" to="-102077248#3" fromLane="0" toLane="0"/>
    <connection from="-102077248#4" to="102077248#4" fromLane="0" toLane="0"/>

    <connection from="-102077248#5" to="-53471480" fromLane="0" toLane="0"/>
    <connection from="-102077248#5" to="-102077248#4" fromLane="0" toLane="0"/>
    <connection from="-102077248#5" to="102077248#5" fromLane="0" toLane="0"/>
