<?xml version="1.0" encoding="UTF-8"?>

<!-- generated on 2025-04-04 16:25:12 by Eclipse SUMO netconvert Version 1.19.0
<configuration xmlns:xsi="http://www.w3.org/2001/XMLSchema-instance" xsi:noNamespaceSchemaLocation="http://sumo.dlr.de/xsd/netconvertConfiguration.xsd">

    <input>
        <sumo-net-file value="plaisir/plaisir.net.xml"/>
    </input>

    <output>
        <plain-output-prefix value="plaisir/plaisir"/>
    </output>

    <processing>
        <geometry.min-radius.fix.railways value="false"/>
        <geometry.max-grade.fix value="false"/>
        <offset.disable-normalization value="true"/>
        <lefthand value="0"/>
    </processing>

    <tls_building>
        <tls.ignore-internal-junction-jam value="1"/>
    </tls_building>

    <junctions>
        <no-turnarounds value="true"/>
        <junctions.corner-detail value="5"/>
        <junctions.limit-turn-speed value="5.50"/>
        <rectangular-lane-cut value="0"/>
    </junctions>

    <pedestrian>
        <walkingareas value="0"/>
    </pedestrian>

</configuration>
-->

<tlLogics version="1.16" xmlns:xsi="http://www.w3.org/2001/XMLSchema-instance" xsi:noNamespaceSchemaLocation="http://sumo.dlr.de/xsd/tllogic_file.xsd">
    <tlLogic id="10885945066" type="static" programID="0" offset="0">
        <phase duration="42" state="GGrGg"/>
        <phase duration="3"  state="yyryy"/>
        <phase duration="42" state="GGGrr"/>
        <phase duration="3"  state="yyyrr"/>
    </tlLogic>
    <tlLogic id="10885945070" type="static" programID="0" offset="0">
        <phase duration="80" state="GG"/>
        <phase duration="5"  state="yy"/>
        <phase duration="5"  state="rr"/>
    </tlLogic>
    <tlLogic id="243207100" type="static" programID="0" offset="0">
        <phase duration="82" state="G"/>
        <phase duration="3"  state="y"/>
        <phase duration="5"  state="r"/>
    </tlLogic>
    <tlLogic id="3032708131" type="static" programID="0" offset="0">
        <phase duration="82" state="G"/>
        <phase duration="3"  state="y"/>
        <phase duration="5"  state="r"/>
    </tlLogic>
    <tlLogic id="4385618339" type="static" programID="0" offset="0">
        <phase duration="82" state="G"/>
        <phase duration="3"  state="y"/>
        <phase duration="5"  state="r"/>
    </tlLogic>
    <tlLogic id="8240501153" type="static" programID="0" offset="0">
        <phase duration="82" state="GG"/>
        <phase duration="3"  state="yy"/>
        <phase duration="5"  state="rr"/>
    </tlLogic>
    <tlLogic id="8514827873" type="static" programID="0" offset="0">
        <phase duration="82" state="GG"/>
        <phase duration="3"  state="yy"/>
        <phase duration="5"  state="rr"/>
    </tlLogic>
    <tlLogic id="8514827874" type="static" programID="0" offset="0">
        <phase duration="80" state="GG"/>
        <phase duration="5"  state="yy"/>
        <phase duration="5"  state="rr"/>
    </tlLogic>
    <tlLogic id="8514827875" type="static" programID="0" offset="0">
        <phase duration="80" state="GG"/>
        <phase duration="5"  state="yy"/>
        <phase duration="5"  state="rr"/>
    </tlLogic>
    <tlLogic id="GS_393653830" type="static" programID="0" offset="0">
        <phase duration="42" state="GGggrrrrGGggrrrr"/>
        <phase duration="3"  state="yyyyrrrryyyyrrrr"/>
        <phase duration="42" state="rrrrGGggrrrrGGgg"/>
        <phase duration="3"  state="rrrryyyyrrrryyyy"/>
    </tlLogic>
    <tlLogic id="GS_466408115" type="static" programID="0" offset="0">
        <phase duration="27" state="GGgrrrGggrrr"/>
        <phase duration="3"  state="yyyrrryyyrrr"/>
        <phase duration="27" state="rrrGGGrrrrrr"/>
        <phase duration="3"  state="rrryyyrrrrrr"/>
        <phase duration="27" state="GrrrrrrrrGGg"/>
        <phase duration="3"  state="yrrrrrrrryyy"/>
    </tlLogic>
    <tlLogic id="GS_466466981" type="static" programID="0" offset="0">
        <phase duration="27" state="GgrrrGGgrrr"/>
        <phase duration="3"  state="yyrrryyyrrr"/>
        <phase duration="27" state="rrrrrrrrGGG"/>
        <phase duration="3"  state="rrrrrrrryyy"/>
        <phase duration="27" state="rrGGgGrrrrr"/>
        <phase duration="3"  state="rryyyyrrrrr"/>
    </tlLogic>
    <tlLogic id="cluster_12470904109_3734347065_7389901765_7389905540_#1more" type="static" programID="0" offset="0">
        <phase duration="26" state="rrrrrrGGGgGG"/>
        <phase duration="3"  state="rrrrrryyyyyy"/>
        <phase duration="27" state="GGGrrrrrrrrr"/>
        <phase duration="3"  state="yyyrrrrrrrrr"/>
        <phase duration="27" state="rrrGGgGrrrrr"/>
        <phase duration="3"  state="rrryyyyrrrrr"/>
        <phase duration="1"  state="rrrrrrrrrrrr"/>
    </tlLogic>
    <tlLogic id="cluster_1690427829_243206908_2604332593_2604332595_#4more" type="static" programID="0" offset="0">
        <phase duration="42" state="rrrrGGggrrrrGGgg"/>
        <phase duration="3"  state="rrrryyyyrrrryyyy"/>
        <phase duration="1"  state="rrrrrrrrrrrrrrrr"/>
        <phase duration="41" state="GGggrrrrGGggrrrr"/>
        <phase duration="3"  state="yyyyrrrryyyyrrrr"/>
    </tlLogic>
    <tlLogic id="cluster_243207351_792536110" type="static" programID="0" offset="0">
        <phase duration="42" state="rrGG"/>
        <phase duration="3"  state="rryy"/>
        <phase duration="42" state="GgGr"/>
        <phase duration="3"  state="yyyr"/>
    </tlLogic>
    <tlLogic id="cluster_7886992039_8514827876" type="static" programID="0" offset="0">
        <phase duration="82" state="GG"/>
        <phase duration="3"  state="yy"/>
        <phase duration="5"  state="rr"/>
    </tlLogic>
    <tlLogic id="joinedS_10135200258_10135200259_307687031_cluster_11846573148_12288163077_307685930" type="static" programID="0" offset="0">
        <phase duration="27" state="GGrrGGrrrGGGggg"/>
        <phase duration="3"  state="yyrryyrrryyyyyy"/>
        <phase duration="27" state="GGGGrrGGgGrrrrr"/>
        <phase duration="3"  state="yyyyrryyyyrrrrr"/>
        <phase duration="27" state="GGGGrrGGgGrrrrr"/>
        <phase duration="3"  state="yyyyrryyyyrrrrr"/>
    </tlLogic>
    <tlLogic id="joinedS_cluster_1224257582_259761493_cluster_466408150_466416756" type="static" programID="0" offset="0">
        <phase duration="27" state="rrrrrrrrGGGGrrrGGgGrr"/>
        <phase duration="3"  state="rrrrrrrryyyyrrryyyyrr"/>
        <phase duration="27" state="GGGgGrrrrrrrGrrrrrGGg"/>
        <phase duration="3"  state="yyyyyrrrrrrryrrrrryyy"/>
        <phase duration="27" state="rrrrGGGgGrrrGGgGrrrrr"/>
        <phase duration="3"  state="rrrryyyyyrrryyyyrrrrr"/>
    </tlLogic>

    <connection from="-1002022807" to="-1002022809" fromLane="0" toLane="0" tl="10885945066" linkIndex="0"/>
    <connection from="-1002022807" to="-1002022809" fromLane="0" toLane="1" tl="10885945066" linkIndex="1"/>
    <connection from="-1275971705#1" to="1328156730#0" fromLane="0" toLane="0" tl="joinedS_10135200258_10135200259_307687031_cluster_11846573148_12288163077_307685930" linkIndex="6"/>
    <connection from="-1275971705#1" to="1107701854#5" fromLane="0" toLane="0" tl="joinedS_10135200258_10135200259_307687031_cluster_11846573148_12288163077_307685930" linkIndex="7"/>
    <connection from="-1275971705#1" to="1275971705#1" fromLane="0" toLane="0" tl="joinedS_10135200258_10135200259_307687031_cluster_11846573148_12288163077_307685930" linkIndex="8"/>
    <connection from="-1328156730#0" to="1107701854#5" fromLane="0" toLane="0" tl="joinedS_10135200258_10135200259_307687031_cluster_11846573148_12288163077_307685930" linkIndex="12"/>
    <connection from="-1328156730#0" to="1275971705#1" fromLane="0" toLane="0" tl="joinedS_10135200258_10135200259_307687031_cluster_11846573148_12288163077_307685930" linkIndex="13"/>
    <connection from="-1328156730#0" to="1328156730#0" fromLane="0" toLane="0" tl="joinedS_10135200258_10135200259_307687031_cluster_11846573148_12288163077_307685930" linkIndex="14"/>
    <connection from="-156808667#1" to="1319429186#4" fromLane="0" toLane="0" tl="cluster_1690427829_243206908_2604332593_2604332595_#4more" linkIndex="8"/>
    <connection from="-156808667#1" to="254622416#1" fromLane="0" toLane="0" tl="cluster_1690427829_243206908_2604332593_2604332595_#4more" linkIndex="9"/>
    <connection from="-156808667#1" to="1319429187#7" fromLane="0" toLane="0" tl="cluster_1690427829_243206908_2604332593_2604332595_#4more" linkIndex="10"/>
    <connection from="-156808667#1" to="156808667#1" fromLane="0" toLane="0" tl="cluster_1690427829_243206908_2604332593_2604332595_#4more" linkIndex="11"/>
    <connection from="-179124149#2" to="-254622401" fromLane="0" toLane="0" tl="GS_466408115" linkIndex="6"/>
    <connection from="-179124149#2" to="39071852" fromLane="0" toLane="0" tl="GS_466408115" linkIndex="7"/>
    <connection from="-179124149#2" to="179124149#0" fromLane="0" toLane="0" tl="GS_466408115" linkIndex="8"/>
    <connection from="-179124150#0" to="106388069" fromLane="0" toLane="0" tl="joinedS_cluster_1224257582_259761493_cluster_466408150_466416756" linkIndex="0"/>
    <connection from="-179124150#0" to="-1155390303#3" fromLane="0" toLane="0" tl="joinedS_cluster_1224257582_259761493_cluster_466408150_466416756" linkIndex="1"/>
    <connection from="-179124150#0" to="-44446798#13" fromLane="0" toLane="0" tl="joinedS_cluster_1224257582_259761493_cluster_466408150_466416756" linkIndex="2"/>
    <connection from="-179124150#0" to="179124150#0" fromLane="0" toLane="0" tl="joinedS_cluster_1224257582_259761493_cluster_466408150_466416756" linkIndex="3"/>
    <connection from="-224418366#2" to="22674745#4" fromLane="0" toLane="0" tl="cluster_243207351_792536110" linkIndex="0"/>
    <connection from="-224418366#2" to="224418366#0" fromLane="0" toLane="0" tl="cluster_243207351_792536110" linkIndex="1"/>
    <connection from="-254622416#1" to="1319429187#7" fromLane="0" toLane="0" tl="cluster_1690427829_243206908_2604332593_2604332595_#4more" linkIndex="0"/>
    <connection from="-254622416#1" to="156808667#1" fromLane="0" toLane="0" tl="cluster_1690427829_243206908_2604332593_2604332595_#4more" linkIndex="1"/>
    <connection from="-254622416#1" to="1319429186#4" fromLane="0" toLane="0" tl="cluster_1690427829_243206908_2604332593_2604332595_#4more" linkIndex="2"/>
    <connection from="-254622416#1" to="254622416#1" fromLane="0" toLane="0" tl="cluster_1690427829_243206908_2604332593_2604332595_#4more" linkIndex="3"/>
    <connection from="-39071852" to="179124149#0" fromLane="0" toLane="0" tl="GS_466408115" linkIndex="9"/>
    <connection from="-39071852" to="-254622401" fromLane="0" toLane="0" tl="GS_466408115" linkIndex="10"/>
    <connection from="-39071852" to="39071852" fromLane="0" toLane="0" tl="GS_466408115" linkIndex="11"/>
    <connection from="-39071902#2" to="-561201041#1" fromLane="0" toLane="0" tl="joinedS_cluster_1224257582_259761493_cluster_466408150_466416756" linkIndex="12"/>
    <connection from="-39071902#2" to="620107133#1" fromLane="0" toLane="0" tl="joinedS_cluster_1224257582_259761493_cluster_466408150_466416756" linkIndex="13"/>
    <connection from="-39071902#2" to="39071902#0" fromLane="0" toLane="0" tl="joinedS_cluster_1224257582_259761493_cluster_466408150_466416756" linkIndex="14"/>
    <connection from="-44419470#5" to="-44419470#3" fromLane="0" toLane="0" tl="10885945070" linkIndex="0"/>
    <connection from="-44419470#6" to="-44419470#5" fromLane="0" toLane="0" tl="8514827874" linkIndex="0"/>
    <connection from="-44419470#9" to="-44419470#7" fromLane="0" toLane="0" tl="8514827875" linkIndex="0"/>
    <connection from="-561322876#1" to="-561322876#0" fromLane="0" toLane="0" tl="8240501153" linkIndex="0"/>
    <connection from="-620107133#1" to="39071902#0" fromLane="0" toLane="0" tl="joinedS_cluster_1224257582_259761493_cluster_466408150_466416756" linkIndex="15"/>
    <connection from="-620107133#1" to="-561201041#1" fromLane="0" toLane="0" tl="joinedS_cluster_1224257582_259761493_cluster_466408150_466416756" linkIndex="16"/>
    <connection from="-620107133#1" to="620107133#1" fromLane="0" toLane="0" tl="joinedS_cluster_1224257582_259761493_cluster_466408150_466416756" linkIndex="17"/>
    <connection from="-749511853#1" to="-22674744#3" fromLane="0" toLane="0" tl="GS_466466981" linkIndex="0"/>
    <connection from="-749511853#1" to="-884856935#2" fromLane="0" toLane="0" tl="GS_466466981" linkIndex="1"/>
    <connection from="-88432925#0" to="28866087#3" fromLane="0" toLane="0" tl="cluster_12470904109_3734347065_7389901765_7389905540_#1more" linkIndex="3"/>
    <connection from="-88432925#0" to="689277294#3" fromLane="0" toLane="1" tl="cluster_12470904109_3734347065_7389901765_7389905540_#1more" linkIndex="4"/>
    <connection from="-88432925#0" to="88432925#0" fromLane="0" toLane="0" tl="cluster_12470904109_3734347065_7389901765_7389905540_#1more" linkIndex="5"/>
    <connection from="-916760971#1" to="620120797" fromLane="0" toLane="0" tl="cluster_7886992039_8514827876" linkIndex="0"/>
    <connection from="-916760971#4" to="-916760971#2" fromLane="0" toLane="0" tl="8514827873" linkIndex="0"/>
    <connection from="-987802051#0" to="-620146164#5" fromLane="0" toLane="0" tl="GS_393653830" linkIndex="0"/>
    <connection from="-987802051#0" to="-455470292#4" fromLane="0" toLane="0" tl="GS_393653830" linkIndex="1"/>
    <connection from="-987802051#0" to="-1156281544#2" fromLane="0" toLane="0" tl="GS_393653830" linkIndex="2"/>
    <connection from="-987802051#0" to="987802052#0" fromLane="0" toLane="0" tl="GS_393653830" linkIndex="3"/>
    <connection from="1002022809" to="1002022807" fromLane="0" toLane="0" tl="10885945066" linkIndex="3"/>
    <connection from="1002022809" to="-1002022809" fromLane="1" toLane="1" tl="10885945066" linkIndex="4"/>
    <connection from="1024951106#0" to="1024951106#2" fromLane="0" toLane="0" tl="joinedS_10135200258_10135200259_307687031_cluster_11846573148_12288163077_307685930" linkIndex="1"/>
    <connection from="1107701848#0" to="1107701846" fromLane="0" toLane="0" tl="joinedS_10135200258_10135200259_307687031_cluster_11846573148_12288163077_307685930" linkIndex="4"/>
    <connection from="1107701848#0" to="1024951105" fromLane="0" toLane="0" tl="joinedS_10135200258_10135200259_307687031_cluster_11846573148_12288163077_307685930" linkIndex="5"/>
    <connection from="1107701854#3" to="1275971705#1" fromLane="0" toLane="0" tl="joinedS_10135200258_10135200259_307687031_cluster_11846573148_12288163077_307685930" linkIndex="9"/>
    <connection from="1107701854#3" to="1328156730#0" fromLane="0" toLane="0" tl="joinedS_10135200258_10135200259_307687031_cluster_11846573148_12288163077_307685930" linkIndex="10"/>
    <connection from="1107701854#3" to="1107701854#5" fromLane="0" toLane="0" tl="joinedS_10135200258_10135200259_307687031_cluster_11846573148_12288163077_307685930" linkIndex="11"/>
    <connection from="1151913162#1" to="39071852" fromLane="0" toLane="0" tl="GS_466408115" linkIndex="0"/>
    <connection from="1151913162#1" to="179124149#0" fromLane="0" toLane="0" tl="GS_466408115" linkIndex="1"/>
    <connection from="1151913162#1" to="-254622401" fromLane="0" toLane="0" tl="GS_466408115" linkIndex="2"/>
    <connection from="1155390303#2" to="-44446798#13" fromLane="0" toLane="0" tl="joinedS_cluster_1224257582_259761493_cluster_466408150_466416756" linkIndex="8"/>
    <connection from="1155390303#2" to="179124150#0" fromLane="0" toLane="0" tl="joinedS_cluster_1224257582_259761493_cluster_466408150_466416756" linkIndex="9"/>
    <connection from="1155390303#2" to="106388069" fromLane="0" toLane="0" tl="joinedS_cluster_1224257582_259761493_cluster_466408150_466416756" linkIndex="10"/>
    <connection from="1155390303#2" to="-1155390303#3" fromLane="0" toLane="0" tl="joinedS_cluster_1224257582_259761493_cluster_466408150_466416756" linkIndex="11"/>
    <connection from="1156281544#0" to="987802052#0" fromLane="0" toLane="0" tl="GS_393653830" linkIndex="4"/>
    <connection from="1156281544#0" to="-620146164#5" fromLane="0" toLane="0" tl="GS_393653830" linkIndex="5"/>
    <connection from="1156281544#0" to="-455470292#4" fromLane="0" toLane="0" tl="GS_393653830" linkIndex="6"/>
    <connection from="1156281544#0" to="-1156281544#2" fromLane="0" toLane="0" tl="GS_393653830" linkIndex="7"/>
    <connection from="1319429186#0" to="156808667#1" fromLane="0" toLane="0" tl="cluster_1690427829_243206908_2604332593_2604332595_#4more" linkIndex="12"/>
    <connection from="1319429186#0" to="1319429186#4" fromLane="0" toLane="0" tl="cluster_1690427829_243206908_2604332593_2604332595_#4more" linkIndex="13"/>
    <connection from="1319429186#0" to="254622416#1" fromLane="0" toLane="0" tl="cluster_1690427829_243206908_2604332593_2604332595_#4more" linkIndex="14"/>
    <connection from="1319429186#0" to="1319429187#7" fromLane="0" toLane="0" tl="cluster_1690427829_243206908_2604332593_2604332595_#4more" linkIndex="15"/>
    <connection from="1319429187#3" to="254622416#1" fromLane="0" toLane="0" tl="cluster_1690427829_243206908_2604332593_2604332595_#4more" linkIndex="4"/>
    <connection from="1319429187#3" to="1319429187#7" fromLane="0" toLane="0" tl="cluster_1690427829_243206908_2604332593_2604332595_#4more" linkIndex="5"/>
    <connection from="1319429187#3" to="156808667#1" fromLane="0" toLane="0" tl="cluster_1690427829_243206908_2604332593_2604332595_#4more" linkIndex="6"/>
    <connection from="1319429187#3" to="1319429186#4" fromLane="0" toLane="0" tl="cluster_1690427829_243206908_2604332593_2604332595_#4more" linkIndex="7"/>
    <connection from="22650393#0" to="22650393#1" fromLane="0" toLane="0" tl="3032708131" linkIndex="0"/>
    <connection from="22651895#0" to="22651895#1" fromLane="0" toLane="0" tl="4385618339" linkIndex="0"/>
    <connection from="22674697#0" to="22674697#2" fromLane="0" toLane="0" tl="243207100" linkIndex="0"/>
    <connection from="22674744#1" to="-884856935#2" fromLane="0" toLane="0" tl="GS_466466981" linkIndex="5"/>
    <connection from="22674744#1" to="749511853#0" fromLane="0" toLane="0" tl="GS_466466981" linkIndex="6"/>
    <connection from="22674744#1" to="-22674744#3" fromLane="0" toLane="0" tl="GS_466466981" linkIndex="7"/>
    <connection from="22674745#0" to="224418366#0" fromLane="0" toLane="0" tl="cluster_243207351_792536110" linkIndex="2"/>
    <connection from="22674745#0" to="22674745#4" fromLane="0" toLane="0" tl="cluster_243207351_792536110" linkIndex="3"/>
    <connection from="254622412#2" to="749511853#0" fromLane="0" toLane="0" tl="GS_466466981" linkIndex="2"/>
    <connection from="254622412#2" to="-22674744#3" fromLane="0" toLane="0" tl="GS_466466981" linkIndex="3"/>
    <connection from="254622412#2" to="-884856935#2" fromLane="0" toLane="0" tl="GS_466466981" linkIndex="4"/>
    <connection from="28020969#0" to="1107701846" fromLane="0" toLane="0" tl="joinedS_10135200258_10135200259_307687031_cluster_11846573148_12288163077_307685930" linkIndex="2"/>
    <connection from="28020969#0" to="1024951105" fromLane="0" toLane="0" tl="joinedS_10135200258_10135200259_307687031_cluster_11846573148_12288163077_307685930" linkIndex="3"/>
    <connection from="28020971#0" to="28020971#2" fromLane="0" toLane="0" tl="joinedS_10135200258_10135200259_307687031_cluster_11846573148_12288163077_307685930" linkIndex="0"/>
    <connection from="28866087#1" to="88432925#0" fromLane="0" toLane="0" tl="cluster_12470904109_3734347065_7389901765_7389905540_#1more" linkIndex="6"/>
    <connection from="28866087#1" to="28866087#3" fromLane="0" toLane="0" tl="cluster_12470904109_3734347065_7389901765_7389905540_#1more" linkIndex="7"/>
    <connection from="28866087#1" to="28866087#3" fromLane="1" toLane="1" tl="cluster_12470904109_3734347065_7389901765_7389905540_#1more" linkIndex="8"/>
    <connection from="28866087#1" to="689277294#3" fromLane="1" toLane="1" tl="cluster_12470904109_3734347065_7389901765_7389905540_#1more" linkIndex="9"/>
    <connection from="369658441" to="689277294#3" fromLane="0" toLane="1" tl="cluster_12470904109_3734347065_7389901765_7389905540_#1more" linkIndex="0"/>
    <connection from="369658441" to="88432925#0" fromLane="0" toLane="0" tl="cluster_12470904109_3734347065_7389901765_7389905540_#1more" linkIndex="1"/>
    <connection from="369658441" to="28866087#3" fromLane="0" toLane="1" tl="cluster_12470904109_3734347065_7389901765_7389905540_#1more" linkIndex="2"/>
    <connection from="44419390#0" to="1002022807" fromLane="0" toLane="0" tl="10885945066" linkIndex="2"/>
    <connection from="44419470#0" to="44419470#4" fromLane="0" toLane="0" tl="10885945070" linkIndex="1"/>
    <connection from="44419470#4" to="44419470#6" fromLane="0" toLane="0" tl="8514827874" linkIndex="1"/>
    <connection from="44419470#7" to="44419470#8" fromLane="0" toLane="0" tl="8514827875" linkIndex="1"/>
    <connection from="44446798#12" to="179124150#0" fromLane="0" toLane="0" tl="joinedS_cluster_1224257582_259761493_cluster_466408150_466416756" linkIndex="4"/>
    <connection from="44446798#12" to="106388069" fromLane="0" toLane="0" tl="joinedS_cluster_1224257582_259761493_cluster_466408150_466416756" linkIndex="5"/>
    <connection from="44446798#12" to="-1155390303#3" fromLane="0" toLane="0" tl="joinedS_cluster_1224257582_259761493_cluster_466408150_466416756" linkIndex="6"/>
    <connection from="44446798#12" to="-44446798#13" fromLane="0" toLane="0" tl="joinedS_cluster_1224257582_259761493_cluster_466408150_466416756" linkIndex="7"/>
    <connection from="455470292#1" to="-1156281544#2" fromLane="0" toLane="0" tl="GS_393653830" linkIndex="8"/>
    <connection from="455470292#1" to="987802052#0" fromLane="0" toLane="0" tl="GS_393653830" linkIndex="9"/>
    <connection from="455470292#1" to="-620146164#5" fromLane="0" toLane="0" tl="GS_393653830" linkIndex="10"/>
    <connection from="455470292#1" to="-455470292#4" fromLane="0" toLane="0" tl="GS_393653830" linkIndex="11"/>
    <connection from="455471581#1" to="-22674744#3" fromLane="0" toLane="0" tl="GS_466466981" linkIndex="8"/>
    <connection from="455471581#1" to="-884856935#2" fromLane="0" toLane="0" tl="GS_466466981" linkIndex="9"/>
    <connection from="455471581#1" to="749511853#0" fromLane="0" toLane="0" tl="GS_466466981" linkIndex="10"/>
    <connection from="561201039#1" to="-254622401" fromLane="0" toLane="0" tl="GS_466408115" linkIndex="3"/>
    <connection from="561201039#1" to="39071852" fromLane="0" toLane="0" tl="GS_466408115" linkIndex="4"/>
    <connection from="561201039#1" to="179124149#0" fromLane="0" toLane="0" tl="GS_466408115" linkIndex="5"/>
    <connection from="561201040#1" to="620107133#1" fromLane="0" toLane="0" tl="joinedS_cluster_1224257582_259761493_cluster_466408150_466416756" linkIndex="18"/>
    <connection from="561201040#1" to="39071902#0" fromLane="0" toLane="0" tl="joinedS_cluster_1224257582_259761493_cluster_466408150_466416756" linkIndex="19"/>
    <connection from="561201040#1" to="-561201041#1" fromLane="0" toLane="0" tl="joinedS_cluster_1224257582_259761493_cluster_466408150_466416756" linkIndex="20"/>
    <connection from="561322876#0" to="561322876#1" fromLane="0" toLane="0" tl="8240501153" linkIndex="1"/>
    <connection from="620146164#3" to="-455470292#4" fromLane="0" toLane="0" tl="GS_393653830" linkIndex="12"/>
    <connection from="620146164#3" to="-1156281544#2" fromLane="0" toLane="0" tl="GS_393653830" linkIndex="13"/>
    <connection from="620146164#3" to="987802052#0" fromLane="0" toLane="0" tl="GS_393653830" linkIndex="14"/>
    <connection from="620146164#3" to="-620146164#5" fromLane="0" toLane="0" tl="GS_393653830" linkIndex="15"/>
    <connection from="689277294#1" to="689277294#3" fromLane="0" toLane="0" tl="cluster_12470904109_3734347065_7389901765_7389905540_#1more" linkIndex="10"/>
    <connection from="689277294#1" to="689277294#3" fromLane="1" toLane="1" tl="cluster_12470904109_3734347065_7389901765_7389905540_#1more" linkIndex="11"/>
    <connection from="916760969" to="916760971#1" fromLane="0" toLane="0" tl="cluster_7886992039_8514827876" linkIndex="1"/>
    <connection from="916760971#2" to="916760971#3" fromLane="0" toLane="0" tl="8514827873" linkIndex="1"/>
</tlLogics>
