<?xml version="1.0" encoding="UTF-8"?>

<!-- generated on 2025-04-04 16:25:12 by Eclipse SUMO netconvert Version 1.19.0
<configuration xmlns:xsi="http://www.w3.org/2001/XMLSchema-instance" xsi:noNamespaceSchemaLocation="http://sumo.dlr.de/xsd/netconvertConfiguration.xsd">

    <input>
        <sumo-net-file value="plaisir/plaisir.net.xml"/>
    </input>

    <output>
        <plain-output-prefix value="plaisir/plaisir"/>
    </output>

    <processing>
        <geometry.min-radius.fix.railways value="false"/>
        <geometry.max-grade.fix value="false"/>
        <offset.disable-normalization value="true"/>
        <lefthand value="0"/>
    </processing>

    <tls_building>
        <tls.ignore-internal-junction-jam value="1"/>
    </tls_building>

    <junctions>
        <no-turnarounds value="true"/>
        <junctions.corner-detail value="5"/>
        <junctions.limit-turn-speed value="5.50"/>
        <rectangular-lane-cut value="0"/>
    </junctions>

    <pedestrian>
        <walkingareas value="0"/>
    </pedestrian>

</configuration>
-->

<edges version="1.16" xmlns:xsi="http://www.w3.org/2001/XMLSchema-instance" xsi:noNamespaceSchemaLocation="http://sumo.dlr.de/xsd/edges_file.xsd">
    <location netOffset="-419954.28,-5405283.54" convBoundary="0.00,0.00,10241.45,5252.70" origBoundary="1.876621,48.796100,2.067132,48.843109" projParameter="+proj=utm +zone=31 +ellps=WGS84 +datum=WGS84 +units=m +no_defs"/>

    <edge id="-1000357709" from="9233853298" to="cluster_8228585843_9233853297" priority="1" type="highway.service" numLanes="1" speed="5.56" shape="2304.22,2658.31 2306.37,2688.77 2306.76,2694.37" allow="pedestrian delivery bicycle"/>
    <edge id="-100100940" from="8364857961" to="1027206281" priority="3" type="highway.residential" numLanes="1" speed="13.89" shape="5737.12,3638.95 5731.89,3639.38 5720.77,3645.41 5713.63,3645.49" disallow="tram rail_urban rail rail_electric rail_fast ship"/>
    <edge id="-100100941" from="1157123437" to="7434769373" priority="1" type="highway.service" numLanes="1" speed="5.56" shape="6107.30,3239.47 6070.97,3202.29 6064.17,3205.48 6046.32,3186.23 6040.24,3178.45" allow="pedestrian delivery bicycle"/>
    <edge id="-100100951#0" from="1157123407" to="cluster_1157123418_1157123425" priority="3" type="highway.residential" numLanes="1" speed="13.89" shape="6098.51,3452.42 6131.15,3486.15" disallow="tram rail_urban rail rail_electric rail_fast ship"/>
    <edge id="-100100951#1" from="1157123431" to="1157123407" priority="3" type="highway.residential" numLanes="1" speed="13.89" disallow="tram rail_urban rail rail_electric rail_fast ship"/>
    <edge id="-100100951#2" from="cluster_1157123415_1157123450" to="1157123431" priority="3" type="highway.residential" numLanes="1" speed="13.89" shape="6001.90,3350.04 6051.72,3404.07" disallow="tram rail_urban rail rail_electric rail_fast ship"/>
    <edge id="-100100951#4" from="1157123432" to="cluster_1157123415_1157123450" priority="3" type="highway.residential" numLanes="1" speed="13.89" shape="5951.02,3300.01 5955.52,3303.07 5978.39,3325.96 5999.86,3348.13" disallow="tram rail_urban rail rail_electric rail_fast ship"/>
    <edge id="-100100952#0" from="7389666311" to="1157123442" priority="3" type="highway.residential" numLanes="1" speed="8.33" disallow="tram rail_urban rail rail_electric rail_fast ship"/>
    <edge id="-100100952#1" from="7728712744" to="7389666311" priority="3" type="highway.residential" numLanes="1" speed="8.33" shape="6181.49,3613.57 6130.08,3589.90 6072.67,3563.72" disallow="tram rail_urban rail rail_electric rail_fast ship"/>
    <edge id="-100100952#2" from="cluster_12471291609_5696677721" to="7728712744" priority="3" type="highway.residential" numLanes="1" speed="8.33" shape="6192.48,3619.46 6181.49,3613.57" disallow="tram rail_urban rail rail_electric rail_fast ship"/>
    <edge id="-100100952#3" from="1157134768" to="cluster_12471291609_5696677721" priority="3" type="highway.residential" numLanes="1" speed="8.33" shape="6228.72,3634.85 6216.39,3632.27 6192.48,3619.46" disallow="tram rail_urban rail rail_electric rail_fast ship"/>
    <edge id="-100100953#0" from="1157123410" to="cluster_1157123415_1157123450" priority="3" type="highway.residential" numLanes="1" speed="13.89" shape="5959.71,3411.94 6001.90,3350.04" disallow="tram rail_urban rail rail_electric rail_fast ship"/>
    <edge id="-100100953#1" from="1157123431" to="1157123410" priority="3" type="highway.residential" numLanes="1" speed="13.89" shape="6051.72,3404.07 6007.93,3445.51 6001.35,3446.14 5960.14,3417.25 5959.71,3411.94" disallow="tram rail_urban rail rail_electric rail_fast ship"/>
    <edge id="-100101558#0" from="cluster_1027206246_9212776338" to="cluster_1027206437_11406353354" priority="3" type="highway.residential" numLanes="1" speed="13.89" shape="5694.26,3926.39 5749.10,3888.67 5766.46,3879.27" disallow="tram rail_urban rail rail_electric rail_fast ship"/>
    <edge id="-100101558#2" from="1027206408" to="cluster_1027206246_9212776338" priority="3" type="highway.residential" numLanes="1" speed="13.89" shape="5613.70,3981.39 5689.02,3930.14" disallow="tram rail_urban rail rail_electric rail_fast ship"/>
    <edge id="-100101558#3" from="cluster_1027206346_11314513572" to="1027206408" priority="3" type="highway.residential" numLanes="1" speed="13.89" shape="5536.63,4034.51 5613.70,3981.39" disallow="tram rail_urban rail rail_electric rail_fast ship"/>
    <edge id="-100101558#5" from="1027206109" to="cluster_1027206346_11314513572" priority="3" type="highway.residential" numLanes="1" speed="13.89" shape="5456.79,4088.09 5468.19,4081.58 5531.89,4038.12" disallow="tram rail_urban rail rail_electric rail_fast ship"/>
    <edge id="-100101559#1" from="1027206224" to="cluster_1027206437_11406353354" priority="3" type="highway.residential" numLanes="1" speed="13.89" shape="5811.75,3860.62 5772.55,3876.76" disallow="tram rail_urban rail rail_electric rail_fast ship"/>
    <edge id="-100101561" from="1157123416" to="1157123403" priority="3" type="highway.residential" numLanes="1" speed="13.89" disallow="tram rail_urban rail rail_electric rail_fast ship"/>
    <edge id="-100101562" from="1157123409" to="1027206438" priority="3" type="highway.residential" numLanes="1" speed="13.89" shape="5630.65,3716.84 5612.68,3766.36 5611.14,3770.59" disallow="tram rail_urban rail rail_electric rail_fast ship"/>
    <edge id="-100101563" from="1027215255" to="cluster_1157163764_4867754425_4867754426" priority="3" type="highway.residential" numLanes="1" speed="13.89" shape="6353.29,3190.34 6220.03,3304.67 6215.74,3309.95" disallow="tram rail_urban rail rail_electric rail_fast ship"/>
    <edge id="-100101564" from="1027206388" to="1027206109" priority="10" type="highway.tertiary" numLanes="1" speed="22.22" shape="5451.37,3768.19 5451.58,3778.78 5452.24,3794.11 5450.87,3891.18 5450.17,3954.11 5456.79,4088.09" disallow="tram rail_urban rail rail_electric rail_fast ship"/>
    <edge id="-100101655" from="1155350260" to="8364857945" priority="3" type="highway.residential" numLanes="1" speed="13.89" shape="5769.10,3540.23 5774.18,3541.31 5782.13,3543.73" disallow="tram rail_urban rail rail_electric rail_fast ship"/>
    <edge id="-100103248#0" from="1027215246" to="1157163745" priority="3" type="highway.residential" numLanes="1" speed="13.89" shape="6515.94,3393.95 6527.60,3399.10 6533.96,3404.87" disallow="tram rail_urban rail rail_electric rail_fast ship"/>
    <edge id="-100103248#1" from="11003283297" to="1027215246" priority="3" type="highway.residential" numLanes="1" speed="13.89" disallow="tram rail_urban rail rail_electric rail_fast ship"/>
    <edge id="-100103248#2" from="1027215220" to="11003283297" priority="3" type="highway.residential" numLanes="1" speed="13.89" disallow="tram rail_urban rail rail_electric rail_fast ship"/>
    <edge id="-100103248#3" from="1027215201" to="1027215220" priority="3" type="highway.residential" numLanes="1" speed="13.89" disallow="tram rail_urban rail rail_electric rail_fast ship"/>
    <edge id="-100103248#4" from="1027215276" to="1027215201" priority="3" type="highway.residential" numLanes="1" speed="13.89" shape="6296.01,3340.50 6314.83,3345.04 6353.07,3354.27 6372.47,3358.95 6395.96,3364.62" disallow="tram rail_urban rail rail_electric rail_fast ship"/>
    <edge id="-100119051#0" from="492219048" to="cluster_1027206097_7731216590" priority="3" type="highway.residential" numLanes="1" speed="13.89" shape="6302.30,3927.30 6290.68,3927.34 6246.42,3927.51" disallow="tram rail_urban rail rail_electric rail_fast ship"/>
    <edge id="-100119051#1" from="492219038" to="492219048" priority="3" type="highway.residential" numLanes="1" speed="13.89" disallow="tram rail_urban rail rail_electric rail_fast ship"/>
    <edge id="-100119051#2" from="7731227910" to="492219038" priority="3" type="highway.residential" numLanes="1" speed="13.89" disallow="tram rail_urban rail rail_electric rail_fast ship"/>
    <edge id="-100119051#3" from="1027206412" to="7731227910" priority="3" type="highway.residential" numLanes="1" speed="13.89" disallow="tram rail_urban rail rail_electric rail_fast ship"/>
    <edge id="-100119051#4" from="1027206348" to="1027206412" priority="3" type="highway.residential" numLanes="1" speed="13.89" disallow="tram rail_urban rail rail_electric rail_fast ship"/>
    <edge id="-100123077" from="1157429133" to="1027215218" priority="1" type="highway.service" numLanes="1" speed="5.56" shape="6331.96,2978.21 6325.48,2964.75 6295.20,2993.06" allow="pedestrian delivery bicycle"/>
    <edge id="-100123078#0" from="1157429129" to="1157429110" priority="1" type="highway.service" numLanes="1" speed="5.56" allow="pedestrian delivery bicycle"/>
    <edge id="-100123078#1" from="1157429108" to="1157429129" priority="1" type="highway.service" numLanes="1" speed="5.56" allow="pedestrian delivery bicycle"/>
    <edge id="-100123079" from="1157429130" to="1157429126" priority="1" type="highway.service" numLanes="1" speed="5.56" shape="6370.15,3156.96 6385.20,3163.82 6396.49,3162.58" allow="pedestrian delivery bicycle"/>
    <edge id="-100123080" from="1157429114" to="1157429129" priority="1" type="highway.service" numLanes="1" speed="5.56" allow="pedestrian delivery bicycle"/>
    <edge id="-100123081#0" from="1157429101" to="1157429132" priority="3" type="highway.residential" numLanes="1" speed="13.89" shape="6057.69,3720.29 6080.60,3769.37 6081.14,3772.57" disallow="tram rail_urban rail rail_electric rail_fast ship"/>
    <edge id="-100123081#1" from="1157429117" to="1157429101" priority="3" type="highway.residential" numLanes="1" speed="13.89" shape="6060.22,3638.35 6026.87,3655.44 6057.69,3720.29" disallow="tram rail_urban rail rail_electric rail_fast ship"/>
    <edge id="-100123081#2" from="12542562902" to="1157429117" priority="3" type="highway.residential" numLanes="1" speed="13.89" shape="6056.66,3598.81 6043.73,3605.74 6060.22,3638.35" disallow="tram rail_urban rail rail_electric rail_fast ship"/>
    <edge id="-100123081#3" from="cluster_1157429103_12470875299_12542521396" to="12542562902" priority="3" type="highway.residential" numLanes="1" speed="13.89" shape="6077.20,3590.66 6074.02,3592.23 6065.69,3593.97 6056.66,3598.81" disallow="tram rail_urban rail rail_electric rail_fast ship"/>
    <edge id="-100123082#0" from="1157467126" to="1157429101" priority="3" type="highway.residential" numLanes="1" speed="13.89" disallow="tram rail_urban rail rail_electric rail_fast ship"/>
    <edge id="-100123082#1" from="1157429127" to="1157467126" priority="3" type="highway.residential" numLanes="1" speed="13.89" disallow="tram rail_urban rail rail_electric rail_fast ship"/>
    <edge id="-100126496" from="1157441726" to="1157441689" priority="3" type="highway.residential" numLanes="1" speed="13.89" disallow="tram rail_urban rail rail_electric rail_fast ship"/>
    <edge id="-100126497#0" from="4916580350" to="1027215203" priority="1" type="highway.service" numLanes="1" speed="5.56" allow="pedestrian delivery bicycle"/>
    <edge id="-100126497#1" from="1157441696" to="4916580350" priority="1" type="highway.service" numLanes="1" speed="5.56" shape="6231.69,3027.74 6190.68,3064.06 6172.70,3078.32 6168.28,3077.65" allow="pedestrian delivery bicycle"/>
    <edge id="-100126497#2" from="1157441705" to="1157441696" priority="1" type="highway.service" numLanes="1" speed="5.56" allow="pedestrian delivery bicycle"/>
    <edge id="-100126497#3" from="1157441709" to="1157441705" priority="1" type="highway.service" numLanes="1" speed="5.56" shape="6309.18,2931.09 6319.18,2950.10 6295.84,2971.91 6244.44,3015.88" allow="pedestrian delivery bicycle"/>
    <edge id="-100126502#0" from="1157441689" to="cluster_1157441673_1157441703_1242615795_1242615807" priority="3" type="highway.residential" numLanes="1" speed="13.89" shape="6148.19,3201.09 6129.83,3216.69" disallow="tram rail_urban rail rail_electric rail_fast ship"/>
    <edge id="-100126502#1" from="1157441695" to="1157441689" priority="3" type="highway.residential" numLanes="1" speed="13.89" shape="6170.50,3179.52 6169.17,3183.17 6148.19,3201.09" disallow="tram rail_urban rail rail_electric rail_fast ship"/>
    <edge id="-100126502#2" from="1157441732" to="1157441695" priority="3" type="highway.residential" numLanes="1" speed="13.89" disallow="tram rail_urban rail rail_electric rail_fast ship"/>
    <edge id="-100126502#3" from="1157441733" to="1157441732" priority="3" type="highway.residential" numLanes="1" speed="13.89" shape="6218.76,3091.80 6250.80,3109.93 6192.20,3160.71" disallow="tram rail_urban rail rail_electric rail_fast ship"/>
    <edge id="-100126502#4" from="1157441746" to="1157441733" priority="3" type="highway.residential" numLanes="1" speed="13.89" shape="6198.64,3074.20 6208.57,3066.02 6224.81,3087.31 6218.76,3091.80" disallow="tram rail_urban rail rail_electric rail_fast ship"/>
    <edge id="-100126502#5" from="1157441733" to="1157441746" priority="3" type="highway.residential" numLanes="1" speed="13.89" shape="6218.76,3091.80 6214.57,3094.70 6198.64,3074.20" disallow="tram rail_urban rail rail_electric rail_fast ship"/>
    <edge id="-100126505" from="1157441749" to="1157441705" priority="1" type="highway.service" numLanes="1" speed="5.56" allow="pedestrian delivery bicycle"/>
    <edge id="-100126507" from="1157441744" to="1157441732" priority="3" type="highway.residential" numLanes="1" speed="13.89" disallow="tram rail_urban rail rail_electric rail_fast ship"/>
    <edge id="-100126509" from="1157441692" to="1157441696" priority="1" type="highway.service" numLanes="1" speed="5.56" allow="pedestrian delivery bicycle"/>
    <edge id="-100126511" from="10224064730" to="1027215203" priority="2" type="highway.living_street" numLanes="1" speed="5.56" shape="6126.35,3117.98 6150.23,3092.30 6155.10,3087.05 6156.60,3084.72 6157.74,3081.17 6158.38,3077.32" disallow="tram rail_urban rail rail_electric rail_fast ship"/>
    <edge id="-100127850" from="1157452142" to="4916580350" priority="1" type="highway.service" numLanes="1" speed="5.56" shape="6177.14,3063.89 6176.49,3066.65 6170.27,3072.91 6168.28,3077.65" allow="pedestrian delivery bicycle"/>
    <edge id="-100132093#0" from="1027206438" to="1027206372" priority="10" type="highway.tertiary" numLanes="1" speed="22.22" disallow="tram rail_urban rail rail_electric rail_fast ship"/>
    <edge id="-100132093#1" from="1027206267" to="1027206438" priority="10" type="highway.tertiary" numLanes="1" speed="22.22" disallow="tram rail_urban rail rail_electric rail_fast ship"/>
    <edge id="-100132093#2" from="1027206388" to="1027206267" priority="10" type="highway.tertiary" numLanes="1" speed="22.22" shape="5451.37,3768.19 5469.25,3770.52 5531.00,3769.39" disallow="tram rail_urban rail rail_electric rail_fast ship"/>
    <edge id="-100132095#1" from="12302113338" to="cluster_12465770274_12568931861_12568931862_12568931863" priority="10" type="highway.tertiary" numLanes="1" speed="22.22" shape="6162.03,3772.78 6178.23,3772.88" disallow="tram rail_urban rail rail_electric rail_fast ship"/>
    <edge id="-100132095#10" from="1027206277" to="1027206153" priority="10" type="highway.tertiary" numLanes="1" speed="22.22" disallow="tram rail_urban rail rail_electric rail_fast ship"/>
    <edge id="-100132095#11" from="4867748233" to="1027206277" priority="10" type="highway.tertiary" numLanes="1" speed="22.22" shape="5689.89,3770.28 5693.87,3770.31 5699.23,3770.35 5771.01,3770.72" disallow="tram rail_urban rail rail_electric rail_fast ship"/>
    <edge id="-100132095#2" from="2315602732" to="12302113338" priority="10" type="highway.tertiary" numLanes="1" speed="22.22" disallow="tram rail_urban rail rail_electric rail_fast ship"/>
    <edge id="-100132095#3" from="3225597425" to="2315602732" priority="10" type="highway.tertiary" numLanes="1" speed="22.22" disallow="tram rail_urban rail rail_electric rail_fast ship"/>
    <edge id="-100132095#4" from="1157429132" to="3225597425" priority="10" type="highway.tertiary" numLanes="1" speed="22.22" disallow="tram rail_urban rail rail_electric rail_fast ship"/>
    <edge id="-100132095#5" from="cluster_7635004696_7635004697_7635004698_7731180419" to="1157429132" priority="10" type="highway.tertiary" numLanes="1" speed="22.22" shape="6022.05,3772.04 6081.14,3772.57" disallow="tram rail_urban rail rail_electric rail_fast ship"/>
    <edge id="-100132095#8" from="1027206101" to="cluster_7635004696_7635004697_7635004698_7731180419" priority="10" type="highway.tertiary" numLanes="1" speed="22.22" shape="5930.75,3771.56 6003.56,3771.94" disallow="tram rail_urban rail rail_electric rail_fast ship"/>
    <edge id="-100132095#9" from="1027206153" to="1027206101" priority="10" type="highway.tertiary" numLanes="1" speed="22.22" disallow="tram rail_urban rail rail_electric rail_fast ship"/>
    <edge id="-100142544" from="8364857956" to="1157591385" priority="3" type="highway.residential" numLanes="1" speed="13.89" shape="5813.90,3512.39 5815.78,3505.99 5832.45,3485.94 5835.20,3482.95" disallow="tram rail_urban rail rail_electric rail_fast ship"/>
    <edge id="-1002022805#2" from="257252793" to="11432799797" priority="10" type="highway.tertiary" numLanes="1" speed="13.89" shape="3163.90,3119.13 3139.46,3121.86 3114.91,3127.96 3111.98,3128.69 3107.51,3129.79" disallow="tram rail_urban rail rail_electric rail_fast ship"/>
    <edge id="-1002022806#2" from="257252793" to="564635383" priority="3" type="highway.residential" numLanes="1" speed="13.89" shape="3163.90,3119.13 3161.44,3095.11 3161.10,3091.82 3157.95,3059.11" disallow="tram rail_urban rail rail_electric rail_fast ship"/>
    <edge id="-1002022807" from="564635618" to="10885945066" priority="10" type="highway.tertiary" numLanes="1" speed="13.89" disallow="tram rail_urban rail rail_electric rail_fast ship"/>
    <edge id="-1002022808#2" from="12346708557" to="cluster_12346708561_12346708562_1690290363_257252788" priority="3" type="highway.residential" numLanes="1" speed="13.89" shape="3166.05,3138.94 3166.80,3145.93 3167.11,3148.72 3172.25,3194.84 3178.75,3247.23 3179.05,3249.68 3180.38,3261.07 3184.08,3290.18 3185.82,3308.65 3185.56,3323.35 3182.93,3338.16" disallow="tram rail_urban rail rail_electric rail_fast ship"/>
    <edge id="-1002022808#3" from="257252793" to="12346708557" priority="3" type="highway.residential" numLanes="1" speed="13.89" disallow="tram rail_urban rail rail_electric rail_fast ship"/>
    <edge id="-1002022809" from="10885945066" to="257252793" priority="10" type="highway.tertiary" numLanes="2" speed="13.89" disallow="tram rail_urban rail rail_electric rail_fast ship"/>
    <edge id="-100282772" from="1159102639" to="1159102629" priority="1" type="highway.service" numLanes="1" speed="5.56" allow="pedestrian delivery bicycle"/>
    <edge id="-100282774#0" from="1159102628" to="1159102637" priority="1" type="highway.service" numLanes="1" speed="5.56" allow="pedestrian delivery bicycle"/>
    <edge id="-100282774#1" from="1159102629" to="1159102628" priority="1" type="highway.service" numLanes="1" speed="5.56" allow="pedestrian delivery bicycle"/>
    <edge id="-100282774#2" from="1159102626" to="1159102629" priority="1" type="highway.service" numLanes="1" speed="5.56" allow="pedestrian delivery bicycle"/>
    <edge id="-100282774#3" from="1159102628" to="1159102626" priority="1" type="highway.service" numLanes="1" speed="5.56" shape="6176.60,3307.24 6141.76,3336.47 6103.65,3298.49" allow="pedestrian delivery bicycle"/>
    <edge id="-100282778" from="1159102625" to="1159102626" priority="1" type="highway.service" numLanes="1" speed="5.56" allow="pedestrian delivery bicycle"/>
    <edge id="-100300038#0" from="1210304129" to="1209575264" priority="2" type="highway.living_street" numLanes="1" speed="2.78" shape="5708.03,2409.98 5710.93,2402.99 5709.55,2394.26" disallow="tram rail_urban rail rail_electric rail_fast ship"/>
    <edge id="-100300038#1" from="7497480432" to="1210304129" priority="2" type="highway.living_street" numLanes="1" speed="2.78" disallow="tram rail_urban rail rail_electric rail_fast ship"/>
    <edge id="-100300038#2" from="1209575260" to="7497480432" priority="2" type="highway.living_street" numLanes="1" speed="2.78" shape="5685.52,2442.95 5699.71,2432.61 5704.70,2426.27 5705.81,2417.70 5706.30,2416.01" disallow="tram rail_urban rail rail_electric rail_fast ship"/>
    <edge id="-100300038#3" from="1250206368" to="1209575260" priority="2" type="highway.living_street" numLanes="1" speed="2.78" shape="5687.90,2477.43 5686.17,2473.88 5680.65,2463.93 5679.18,2456.82 5680.66,2449.44 5685.52,2442.95" disallow="tram rail_urban rail rail_electric rail_fast ship"/>
    <edge id="-100300038#4" from="cluster_1250206355_1250206384" to="1250206368" priority="2" type="highway.living_street" numLanes="1" speed="2.78" shape="5688.34,2505.27 5690.66,2493.78 5688.94,2479.84 5687.90,2477.43" disallow="tram rail_urban rail rail_electric rail_fast ship"/>
    <edge id="-100300038#6" from="1153367706" to="cluster_1250206355_1250206384" priority="2" type="highway.living_street" numLanes="1" speed="2.78" shape="5678.36,2525.94 5684.17,2520.07 5687.55,2509.20" disallow="tram rail_urban rail rail_electric rail_fast ship"/>
    <edge id="-100376010" from="2895501680" to="1160279402" priority="3" type="highway.residential" numLanes="1" speed="13.89" disallow="tram rail_urban rail rail_electric rail_fast ship"/>
    <edge id="-100376012" from="1160279392" to="1160279406" priority="1" type="highway.service" numLanes="1" speed="5.56" allow="pedestrian delivery bicycle"/>
    <edge id="-100376019" from="1160279405" to="1160279402" priority="2" type="highway.living_street" numLanes="1" speed="5.56" shape="5505.11,3678.56 5421.58,3706.90 5414.67,3709.25" disallow="tram rail_urban rail rail_electric rail_fast ship"/>
    <edge id="-100380474#0" from="1178915795" to="564655143" priority="3" type="highway.residential" numLanes="1" speed="13.89" shape="5392.47,3623.47 5395.19,3632.33 5399.52,3644.60" disallow="tram rail_urban rail rail_electric rail_fast ship"/>
    <edge id="-100380474#1" from="1178915817" to="1178915795" priority="3" type="highway.residential" numLanes="1" speed="13.89" disallow="tram rail_urban rail rail_electric rail_fast ship"/>
    <edge id="-100380482#0" from="5730537608" to="1160279413" priority="4" type="highway.unclassified" numLanes="1" speed="13.89" disallow="tram rail_urban rail rail_electric rail_fast ship"/>
    <edge id="-100380482#1" from="1160279406" to="5730537608" priority="4" type="highway.unclassified" numLanes="1" speed="13.89" shape="4990.36,3765.22 4988.61,3725.83 4897.77,3730.56 4893.02,3730.01 4890.77,3726.62 4889.41,3685.55" disallow="tram rail_urban rail rail_electric rail_fast ship"/>
    <edge id="-100380482#2" from="1160279419" to="1160279406" priority="4" type="highway.unclassified" numLanes="1" speed="13.89" disallow="tram rail_urban rail rail_electric rail_fast ship"/>
    <edge id="-101345925" from="1170233360" to="651994815" priority="1" type="highway.path" numLanes="1" speed="5.56" shape="6116.47,577.04 6132.43,653.72 6164.30,782.40" width="2.00" allow="pedestrian bicycle"/>
    <edge id="-101345926#0" from="651994532" to="651994512" priority="1" type="highway.path" numLanes="1" speed="5.56" shape="4720.82,1751.06 4701.32,1705.01 4685.35,1654.13 4675.13,1607.37 4669.73,1562.62 4668.86,1536.29" width="2.00" allow="pedestrian bicycle"/>
    <edge id="-101345926#1" from="651994535" to="651994532" priority="1" type="highway.path" numLanes="1" speed="5.56" width="2.00" allow="pedestrian bicycle"/>
    <edge id="-101345926#2" from="651994652" to="651994535" priority="1" type="highway.path" numLanes="1" speed="5.56" shape="4754.93,1836.64 4739.36,1792.64 4737.12,1787.61" width="2.00" allow="pedestrian bicycle"/>
    <edge id="-101345928#0" from="cluster_1210304313_1221719806" to="1256732059" priority="1" type="highway.track" numLanes="1" speed="5.56" shape="5589.20,2273.70 5591.10,2308.27 5589.84,2359.75" allow="pedestrian motorcycle moped bicycle"/>
    <edge id="-101345928#2" from="3066791611" to="cluster_1210304313_1221719806" priority="1" type="highway.track" numLanes="1" speed="5.56" shape="5586.02,2245.54 5589.53,2271.33" allow="pedestrian motorcycle moped bicycle"/>
    <edge id="-101345928#3" from="1170233399" to="3066791611" priority="1" type="highway.track" numLanes="1" speed="5.56" shape="5475.94,2119.77 5515.72,2148.30 5542.05,2173.86 5567.60,2199.45 5582.01,2224.24 5584.77,2236.46 5586.02,2245.54" allow="pedestrian motorcycle moped bicycle"/>
    <edge id="-101345928#4" from="1170233357" to="1170233399" priority="1" type="highway.track" numLanes="1" speed="5.56" shape="5447.54,1945.06 5456.65,1972.36 5459.55,2001.35 5457.81,2047.71 5456.81,2090.93 5475.94,2119.77" allow="pedestrian motorcycle moped bicycle"/>
    <edge id="-101345930#0" from="823544313" to="823544303" priority="1" type="highway.path" numLanes="1" speed="5.56" shape="5231.62,1153.27 5220.29,1189.56 5189.57,1249.67 5195.32,1266.88 5222.84,1321.50 5236.21,1373.32" width="2.00" allow="pedestrian bicycle"/>
    <edge id="-101345930#1" from="3225547741" to="823544313" priority="1" type="highway.path" numLanes="1" speed="5.56" width="2.00" allow="pedestrian bicycle"/>
    <edge id="-101345930#2" from="2591837540" to="3225547741" priority="1" type="highway.path" numLanes="1" speed="5.56" shape="5243.73,1096.97 5232.72,1117.90 5232.56,1123.10" width="2.00" allow="pedestrian bicycle"/>
    <edge id="-101345931#0" from="823544285" to="651994737" priority="1" type="highway.path" numLanes="1" speed="5.56" shape="5141.81,1396.68 5154.67,1412.73 5172.95,1437.57 5223.53,1413.43" width="2.00" allow="pedestrian bicycle"/>
    <edge id="-101345931#1" from="675810815" to="823544285" priority="1" type="highway.path" numLanes="1" speed="5.56" shape="5090.88,1397.75 5115.66,1381.94 5128.33,1379.86 5141.81,1396.68" width="2.00" allow="pedestrian bicycle"/>
    <edge id="-101345931#10" from="651994635" to="651994602" priority="1" type="highway.path" numLanes="1" speed="5.56" shape="4374.97,2010.24 4375.57,1999.41 4370.56,1988.65 4356.16,1976.14 4349.22,1961.31 4339.71,1951.35 4326.48,1942.19 4318.89,1934.82 4318.40,1926.25 4323.32,1915.42" width="2.00" allow="pedestrian bicycle"/>
    <edge id="-101345931#2" from="651994526" to="675810815" priority="1" type="highway.path" numLanes="1" speed="5.56" shape="4825.69,1599.01 4842.31,1601.00 4858.21,1601.66 4883.81,1602.30 4904.46,1594.92 4918.93,1575.75 4932.92,1557.09 4949.07,1535.82 4964.31,1518.23 4985.59,1494.33 5012.35,1467.66 5041.70,1441.08 5077.39,1406.36 5090.88,1397.75" width="2.00" allow="pedestrian bicycle"/>
    <edge id="-101345931#3" from="651994512" to="651994526" priority="1" type="highway.path" numLanes="1" speed="5.56" shape="4668.86,1536.29 4700.37,1547.61 4736.23,1561.47 4825.69,1599.01" width="2.00" allow="pedestrian bicycle"/>
    <edge id="-101345931#4" from="651994515" to="651994512" priority="1" type="highway.path" numLanes="1" speed="5.56" shape="4654.10,1530.17 4663.59,1534.74 4668.86,1536.29" width="2.00" allow="pedestrian bicycle"/>
    <edge id="-101345931#5" from="651994488" to="651994515" priority="1" type="highway.path" numLanes="1" speed="5.56" shape="4537.01,1579.42 4543.74,1565.96 4553.04,1559.33 4575.72,1548.69 4599.90,1535.94 4620.68,1526.28 4642.88,1522.74 4654.10,1530.17" width="2.00" allow="pedestrian bicycle"/>
    <edge id="-101345931#6" from="3366288439" to="651994488" priority="1" type="highway.path" numLanes="1" speed="5.56" shape="4509.53,1720.91 4516.84,1704.37 4530.56,1683.92 4536.48,1667.77 4536.74,1644.25 4534.30,1620.38 4533.06,1598.80 4537.01,1579.42" width="2.00" allow="pedestrian bicycle"/>
    <edge id="-101345931#7" from="651994498" to="3366288439" priority="1" type="highway.path" numLanes="1" speed="5.56" shape="4499.76,1760.83 4506.23,1728.42 4509.53,1720.91" width="2.00" allow="pedestrian bicycle"/>
    <edge id="-101345931#8" from="651994645" to="651994498" priority="1" type="highway.path" numLanes="1" speed="5.56" shape="4448.50,1841.45 4475.95,1815.26 4493.77,1785.77 4499.76,1760.83" width="2.00" allow="pedestrian bicycle"/>
    <edge id="-101345931#9" from="651994602" to="651994645" priority="1" type="highway.path" numLanes="1" speed="5.56" shape="4323.32,1915.42 4344.80,1901.35 4374.50,1885.27 4413.46,1859.13 4448.50,1841.45" width="2.00" allow="pedestrian bicycle"/>
    <edge id="-101345932" from="1170233391" to="675801649" priority="1" type="highway.track" numLanes="1" speed="5.56" shape="5370.17,1992.73 5388.96,2036.10 5423.39,2081.88 5452.57,2138.93 5491.41,2224.52" allow="pedestrian motorcycle moped bicycle"/>
    <edge id="-102007807" from="1177560213" to="1177560187" priority="1" type="highway.service" numLanes="1" speed="5.56" allow="pedestrian delivery bicycle"/>
    <edge id="-102008887" from="1250188788" to="2363375408" priority="1" type="highway.service" numLanes="1" speed="5.56" allow="pedestrian delivery bicycle"/>