<?xml version="1.0" encoding="UTF-8"?>

<!-- generated on 2025-04-04 16:23:36 by Eclipse SUMO netconvert Version 1.19.0
<configuration xmlns:xsi="http://www.w3.org/2001/XMLSchema-instance" xsi:noNamespaceSchemaLocation="http://sumo.dlr.de/xsd/netconvertConfiguration.xsd">

    <input>
        <sumo-net-file value="nangis/nangis.net.xml"/>
    </input>

    <output>
        <plain-output-prefix value="nangis/nangis"/>
    </output>

    <processing>
        <geometry.min-radius.fix.railways value="false"/>
        <geometry.max-grade.fix value="false"/>
        <offset.disable-normalization value="true"/>
        <lefthand value="0"/>
    </processing>

    <tls_building>
        <tls.ignore-internal-junction-jam value="1"/>
    </tls_building>

    <junctions>
        <no-turnarounds value="true"/>
        <junctions.corner-detail value="5"/>
        <junctions.limit-turn-speed value="5.50"/>
        <rectangular-lane-cut value="0"/>
    </junctions>

    <pedestrian>
        <walkingareas value="0"/>
    </pedestrian>

</configuration>
-->

<edges version="1.16" xmlns:xsi="http://www.w3.org/2001/XMLSchema-instance" xsi:noNamespaceSchemaLocation="http://sumo.dlr.de/xsd/edges_file.xsd">
    <location netOffset="-497095.76,-5375769.42" convBoundary="0.00,0.00,7239.82,7677.66" origBoundary="2.505475,48.424568,3.301254,48.649231" projParameter="+proj=utm +zone=31 +ellps=WGS84 +datum=WGS84 +units=m +no_defs"/>

    <edge id="-1008164501" from="9300949242" to="12396713079" priority="1" type="highway.service" numLanes="1" speed="5.56" allow="pedestrian delivery bicycle"/>
    <edge id="-1008164509" from="1515745948" to="1515745940" priority="1" type="highway.service" numLanes="1" speed="5.56" allow="pedestrian delivery bicycle"/>
    <edge id="-1008164510#0" from="12394647630" to="1515745948" priority="4" type="highway.unclassified" numLanes="1" speed="13.89" disallow="tram rail_urban rail rail_electric rail_fast ship"/>
    <edge id="-1008164510#1" from="cluster_1515745990_1515745993" to="12394647630" priority="4" type="highway.unclassified" numLanes="1" speed="13.89" shape="3920.10,2191.17 3920.06,2185.08 3919.75,2177.17" disallow="tram rail_urban rail rail_electric rail_fast ship"/>
    <edge id="-1008164511" from="9300949321" to="9300949317" priority="1" type="highway.service" numLanes="1" speed="5.56" shape="4004.53,2324.87 4010.93,2287.09 4011.71,2270.92 4010.78,2258.32 4009.12,2253.88" allow="pedestrian delivery bicycle"/>
    <edge id="-1008164531" from="9300949396" to="9300949394" priority="1" type="highway.service" numLanes="1" speed="5.56" shape="4854.30,2619.63 4846.10,2613.87 4840.00,2614.68" allow="pedestrian delivery bicycle"/>
    <edge id="-1008164533" from="9300949393" to="9300949376" priority="1" type="highway.service" numLanes="1" speed="5.56" shape="4887.68,2656.18 4908.14,2670.91 4914.24,2673.34 4920.55,2674.16 4959.41,2669.30 4971.82,2671.13 4982.37,2675.77" allow="pedestrian delivery bicycle"/>
    <edge id="-1008164535" from="6175534634" to="6175534637" priority="1" type="highway.service" numLanes="1" speed="5.56" shape="4999.55,2657.03 4964.34,2662.00 4945.28,2652.90 4937.25,2596.04" allow="pedestrian delivery bicycle"/>
    <edge id="-1008164536#0" from="6175534634" to="cluster_12394512405_6175534639_6175534640" priority="1" type="highway.service" numLanes="1" speed="5.56" shape="4999.55,2657.03 5003.32,2664.08 5004.00,2668.30" allow="pedestrian delivery bicycle"/>
    <edge id="-1008164543" from="9300949434" to="9300949433" priority="1" type="highway.service" numLanes="1" speed="5.56" allow="pedestrian delivery bicycle"/>
    <edge id="-1008164544#0" from="9300949433" to="8916996954" priority="1" type="highway.service" numLanes="1" speed="5.56" shape="5013.65,2692.09 5015.05,2685.55 5018.26,2673.18" allow="pedestrian delivery bicycle"/>
    <edge id="-1008164544#1" from="9300949435" to="9300949433" priority="1" type="highway.service" numLanes="1" speed="5.56" allow="pedestrian delivery bicycle"/>
    <edge id="-1008164571" from="9300949509" to="9300949504" priority="1" type="highway.service" numLanes="1" speed="5.56" shape="5348.82,2965.53 5293.90,2929.81 5288.41,2924.74 5285.97,2918.24 5286.79,2910.13 5312.40,2870.81 5317.26,2863.37" allow="pedestrian delivery bicycle"/>
    <edge id="-1008164574" from="9300949523" to="1680126297" priority="1" type="highway.service" numLanes="1" speed="5.56" shape="5448.38,2950.98 5430.22,2937.80 5423.25,2926.62" allow="pedestrian delivery bicycle"/>
    <edge id="-1008164616" from="5714092136" to="9300949577" priority="1" type="highway.service" numLanes="1" speed="5.56" shape="5478.72,3067.80 5486.62,3055.91 5492.52,3046.75 5498.05,3045.00 5532.81,3065.97" allow="pedestrian delivery bicycle"/>
    <edge id="-1008164624" from="9300949607" to="cluster_1680126020_1680126026_1680126041_8916996952" priority="1" type="highway.service" numLanes="1" speed="5.56" shape="5291.40,2620.61 5289.26,2628.18 5287.26,2635.66" allow="pedestrian delivery bicycle"/>
    <edge id="-1009960109" from="4272300794" to="4272307292" priority="1" type="highway.service" numLanes="1" speed="5.56" shape="2727.86,1398.74 2724.23,1399.21 2651.86,1408.52 2564.39,1419.35" allow="pedestrian delivery bicycle"/>
    <edge id="-1009960110" from="9318511087" to="1617959126" priority="1" type="highway.track" numLanes="1" speed="5.56" shape="3331.99,1145.34 3277.01,1140.97 3241.36,1137.04 3147.87,1111.85 3124.01,1104.01 3106.89,1094.78 3087.23,1079.94 3065.34,1058.38 3049.33,1036.26 3020.14,992.04 2995.43,950.05 2958.52,874.64 2941.77,843.65 2920.48,812.10 2903.91,793.33 2873.59,769.66 2864.36,764.41 2828.53,755.08" allow="pedestrian motorcycle moped bicycle"/>
    <edge id="-1009960111" from="9318511102" to="9318511091" priority="1" type="highway.track" numLanes="1" speed="5.56" shape="2042.81,384.53 2051.19,381.28 2486.68,442.54 2495.94,445.62 2503.52,450.66 2522.62,476.41 2575.97,559.55 2592.26,577.19 2660.77,631.21 2725.35,677.68 2739.95,685.24 2774.20,696.16" allow="pedestrian motorcycle moped bicycle"/>
    <edge id="-1009960112#0" from="9318515925" to="1617959126" priority="1" type="highway.track" numLanes="1" speed="5.56" shape="2820.91,718.89 2830.91,746.26 2828.53,755.08" allow="pedestrian motorcycle moped bicycle"/>
    <edge id="-1009960112#1" from="9318511091" to="9318515925" priority="1" type="highway.track" numLanes="1" speed="5.56" shape="2774.20,696.16 2783.46,695.60 2816.59,707.07 2820.91,718.89" allow="pedestrian motorcycle moped bicycle"/>
    <edge id="-1009960112#2" from="9318511107" to="9318511091" priority="1" type="highway.track" numLanes="1" speed="5.56" shape="2736.67,848.68 2739.39,836.96 2739.39,823.53 2735.17,801.41 2735.45,792.17 2774.20,696.16" allow="pedestrian motorcycle moped bicycle"/>
    <edge id="-1009960115" from="9318515921" to="9318515925" priority="1" type="highway.track" numLanes="1" speed="5.56" shape="3017.98,473.18 2833.72,714.33 2820.91,718.89" allow="pedestrian motorcycle moped bicycle"/>
    <edge id="-1009960121#0" from="9318515934" to="1515764298" priority="1" type="highway.track" numLanes="1" speed="5.56" allow="pedestrian motorcycle moped bicycle"/>
    <edge id="-1009960121#1" from="9318515954" to="9318515934" priority="1" type="highway.track" numLanes="1" speed="5.56" shape="2233.19,1861.00 2289.21,1844.90 2338.85,1827.74 2475.72,1776.53 2506.43,1766.24 2524.86,1763.79" allow="pedestrian motorcycle moped bicycle"/>
    <edge id="-1009960125" from="9318515961" to="9318515956" priority="1" type="highway.track" numLanes="1" speed="5.56" shape="2068.18,1598.47 2133.55,1645.02 2163.04,1660.45 2199.41,1677.11 2222.02,1685.43 2353.74,1719.72" allow="pedestrian motorcycle moped bicycle"/>
    <edge id="-1009960126" from="9318515965" to="9318515956" priority="1" type="highway.track" numLanes="1" speed="5.56" shape="2312.51,1503.29 2349.15,1710.32 2353.74,1719.72" allow="pedestrian motorcycle moped bicycle"/>
    <edge id="-1009960128" from="9318515956" to="9318515934" priority="1" type="highway.track" numLanes="1" speed="5.56" shape="2353.74,1719.72 2502.65,1759.89 2524.86,1763.79" allow="pedestrian motorcycle moped bicycle"/>
    <edge id="-1009960129#0" from="9318516040" to="9318515931" priority="1" type="highway.track" numLanes="1" speed="5.56" shape="2941.70,1769.42 2967.17,1770.64 2977.35,1767.55" allow="pedestrian motorcycle moped bicycle"/>
    <edge id="-1009960129#1" from="1515764298" to="9318516040" priority="1" type="highway.track" numLanes="1" speed="5.56" shape="2900.20,1768.18 2920.97,1768.43 2941.70,1769.42" allow="pedestrian motorcycle moped bicycle"/>
    <edge id="-1009960134" from="9318515979" to="9318515971" priority="1" type="highway.track" numLanes="1" speed="5.56" shape="3047.38,3285.23 3031.24,3204.26 2932.68,2711.25 2934.56,2680.83 2935.12,2674.67 2952.64,2480.35 2950.19,2470.77 2942.85,2463.83 2934.94,2461.77 2890.45,2465.14" allow="pedestrian motorcycle moped bicycle"/>
    <edge id="-1009960135#0" from="cluster_9318515989_9318515996" to="9318515992" priority="1" type="highway.track" numLanes="1" speed="5.56" shape="2921.71,3293.58 2905.92,3293.48 2823.30,3309.67 2737.56,3326.24" allow="pedestrian motorcycle moped bicycle"/>
    <edge id="-1009960135#1" from="9318515979" to="cluster_9318515989_9318515996" priority="1" type="highway.track" numLanes="1" speed="5.56" shape="3047.38,3285.23 2935.77,3288.87 2921.71,3293.58" allow="pedestrian motorcycle moped bicycle"/>
    <edge id="-1009960135#2" from="9318515981" to="9318515979" priority="1" type="highway.track" numLanes="1" speed="5.56" shape="3148.88,3321.90 3123.73,3294.88 3047.38,3285.23" allow="pedestrian motorcycle moped bicycle"/>
    <edge id="-1009960136#0" from="9318515985" to="9318515987" priority="1" type="highway.track" numLanes="1" speed="5.56" allow="pedestrian motorcycle moped bicycle"/>
    <edge id="-1009960136#1" from="9318515981" to="9318515985" priority="1" type="highway.track" numLanes="1" speed="5.56" allow="pedestrian motorcycle moped bicycle"/>
    <edge id="-1009960136#2" from="3410043114" to="9318515981" priority="1" type="highway.track" numLanes="1" speed="5.56" shape="3235.75,3332.15 3226.47,3328.51 3211.68,3330.47 3171.89,3326.40 3148.88,3321.90" allow="pedestrian motorcycle moped bicycle"/>
    <edge id="-1009960137" from="9318515985" to="9318515986" priority="1" type="highway.track" numLanes="1" speed="5.56" allow="pedestrian motorcycle moped bicycle"/>
    <edge id="-1009960138" from="cluster_9318515989_9318515996" to="9318515990" priority="1" type="highway.track" numLanes="1" speed="5.56" shape="2917.52,3298.24 2911.90,3336.47" allow="pedestrian motorcycle moped bicycle"/>
    <edge id="-1009960141#0" from="9318516019" to="9318516001" priority="1" type="highway.track" numLanes="1" speed="5.56" shape="2981.25,3663.73 2970.19,3668.86 2963.81,3668.62 2958.16,3664.21 2947.35,3639.47 2911.98,3528.77 2892.08,3459.70 2891.34,3447.20 2892.57,3441.08" allow="pedestrian motorcycle moped bicycle"/>
    <edge id="-1009960141#1" from="9318516011" to="9318516019" priority="1" type="highway.track" numLanes="1" speed="5.56" shape="3171.38,3506.49 3168.68,3513.59 3140.43,3540.77 3084.18,3580.45 3045.12,3606.41 3010.23,3634.58 2981.25,3663.73" allow="pedestrian motorcycle moped bicycle"/>
    <edge id="-1009960141#2" from="9318515986" to="9318516011" priority="1" type="highway.track" numLanes="1" speed="5.56" shape="3106.52,3333.68 3111.46,3330.87 3167.46,3334.79 3208.00,3341.16 3213.40,3346.06 3201.36,3388.92 3171.38,3506.49" allow="pedestrian motorcycle moped bicycle"/>
    <edge id="-1009960141#3" from="9318516007" to="9318515986" priority="1" type="highway.track" numLanes="1" speed="5.56" shape="3051.75,3426.14 3054.95,3420.99 3060.84,3418.79 3097.69,3417.33 3105.55,3414.39 3109.00,3408.51 3104.82,3339.93 3106.52,3333.68" allow="pedestrian motorcycle moped bicycle"/>
    <edge id="-1009960142#0" from="cluster_9318515989_9318515996" to="9318516001" priority="1" type="highway.track" numLanes="1" speed="5.56" shape="2917.52,3298.24 2905.85,3308.81 2872.92,3400.43 2877.09,3415.37 2884.95,3434.71 2892.57,3441.08" allow="pedestrian motorcycle moped bicycle"/>
    <edge id="-1009960143" from="9318516020" to="9318516019" priority="1" type="highway.track" numLanes="1" speed="5.56" allow="pedestrian motorcycle moped bicycle"/>
    <edge id="-1009960144" from="9318516001" to="9318516007" priority="1" type="highway.track" numLanes="1" speed="5.56" shape="2892.57,3441.08 2900.19,3435.20 2913.70,3429.57 2942.44,3424.43 3036.27,3417.57 3044.63,3419.28 3051.75,3426.14" allow="pedestrian motorcycle moped bicycle"/>
    <edge id="-1009960145" from="9318516007" to="9318516011" priority="1" type="highway.track" numLanes="1" speed="5.56" shape="3051.75,3426.14 3054.95,3434.22 3079.02,3463.87 3102.85,3482.72 3171.38,3506.49" allow="pedestrian motorcycle moped bicycle"/>
    <edge id="-1009960151" from="9318516040" to="606150978" priority="1" type="highway.track" numLanes="1" speed="5.56" shape="2941.70,1769.42 2942.00,1784.64 2900.63,2296.50 2895.92,2376.46" allow="pedestrian motorcycle moped bicycle"/>
    <edge id="-1009960152" from="9318516046" to="6175534680" priority="11" type="highway.secondary" numLanes="1" speed="27.78" disallow="tram rail_urban rail rail_electric rail_fast ship">
        <param key="ref" value="D 12"/>
    </edge>
    <edge id="-1009960153#0" from="257392583" to="9318516052" priority="1" type="highway.path" numLanes="1" speed="5.56" width="2.00" allow="pedestrian bicycle"/>
    <edge id="-1009960153#1" from="9318516046" to="257392583" priority="1" type="highway.path" numLanes="1" speed="5.56" shape="3068.18,1901.53 3063.11,1905.16 3063.88,1912.78 3027.09,2195.07" width="2.00" allow="pedestrian bicycle"/>
    <edge id="-1009960153#2" from="12382998842" to="9318516046" priority="1" type="highway.path" numLanes="1" speed="5.56" shape="3114.50,1877.80 3080.45,1897.41 3073.11,1898.77 3068.18,1901.53" width="2.00" allow="pedestrian bicycle"/>
    <edge id="-1009960153#3" from="9318516048" to="12382998842" priority="1" type="highway.path" numLanes="1" speed="5.56" shape="3452.84,1685.87 3442.23,1688.93 3114.50,1877.80" width="2.00" allow="pedestrian bicycle"/>
    <edge id="-1009960157" from="9318516094" to="9318516089" priority="1" type="highway.service" numLanes="1" speed="5.56" shape="3367.53,3319.14 3367.89,3309.78 3368.33,3298.25 3370.25,3272.68 3368.98,3244.24 3354.87,3167.52 3352.71,3143.92" allow="pedestrian delivery bicycle"/>
    <edge id="-1009960158" from="3410043099" to="9318516094" priority="1" type="highway.service" numLanes="1" speed="5.56" shape="3519.10,3206.75 3497.29,3217.24 3460.37,3234.99 3439.29,3243.51 3425.01,3249.68 3411.45,3258.45 3399.75,3269.56 3385.83,3288.96 3367.53,3319.14" allow="pedestrian delivery bicycle"/>
    <edge id="-1020615553" from="9413334448" to="9413334449" priority="1" type="highway.service" numLanes="1" speed="8.33" shape="4808.34,2455.46 4787.51,2454.88 4766.04,2454.18 4763.76,2454.15" allow="pedestrian delivery bicycle"/>
    <edge id="-1020615554" from="9413334450" to="9413334451" priority="1" type="highway.service" numLanes="1" speed="8.33" shape="4807.56,2471.65 4787.11,2471.16 4766.03,2470.56 4763.20,2470.53" allow="pedestrian delivery bicycle"/>
    <edge id="-1059906004#0" from="9738008402" to="9738008403" priority="1" type="highway.service" numLanes="1" speed="5.56" allow="pedestrian delivery bicycle"/>
    <edge id="-1059906004#1" from="9738008401" to="9738008402" priority="1" type="highway.service" numLanes="1" speed="5.56" allow="pedestrian delivery bicycle"/>
    <edge id="-1059906022" from="cluster_1512162129_9738012175" to="9738012176" priority="1" type="highway.service" numLanes="1" speed="5.56" shape="4473.82,2187.19 4470.34,2124.09" allow="pedestrian delivery bicycle"/>
    <edge id="-1059906025" from="9738012181" to="9738012183" priority="1" type="highway.service" numLanes="1" speed="5.56" shape="3904.41,3009.68 3897.97,3019.94 3895.10,3069.52" allow="pedestrian delivery bicycle"/>
    <edge id="-1059906026#0" from="9738012183" to="9738012185" priority="1" type="highway.service" numLanes="1" speed="5.56" allow="pedestrian delivery bicycle"/>
    <edge id="-1059906026#1" from="9738012184" to="9738012183" priority="1" type="highway.service" numLanes="1" speed="5.56" allow="pedestrian delivery bicycle"/>
    <edge id="-1059906028" from="9738012188" to="9738012190" priority="1" type="highway.service" numLanes="1" speed="8.33" shape="3833.19,2284.39 3831.80,2294.16 3761.44,2283.39 3755.87,2282.51" allow="pedestrian delivery bicycle"/>
    <edge id="-1060093169" from="9739791330" to="9739791331" priority="1" type="highway.service" numLanes="1" speed="5.56" allow="pedestrian delivery bicycle"/>
    <edge id="-1060093170" from="12383182158" to="333741943" priority="1" type="highway.cycleway" numLanes="1" speed="5.56" shape="4288.70,2215.10 4285.74,2204.26 4276.52,2114.57 4272.46,2114.04" width="2.00" allow="bicycle"/>
    <edge id="-1060093177" from="9739791347" to="9739791348" priority="1" type="highway.service" numLanes="1" speed="5.56" allow="pedestrian delivery bicycle"/>
    <edge id="-1060093178#0" from="9739791348" to="9739791352" priority="1" type="highway.service" numLanes="1" speed="5.56" shape="4366.47,2362.35 4364.29,2355.34 4363.00,2348.28 4376.57,2324.41 4383.72,2314.61" allow="pedestrian delivery bicycle"/>
    <edge id="-1060093178#1" from="9739791349" to="9739791348" priority="1" type="highway.service" numLanes="1" speed="5.56" allow="pedestrian delivery bicycle"/>
    <edge id="-1060093180" from="9739791354" to="9739791356" priority="1" type="highway.service" numLanes="1" speed="5.56" shape="4556.08,2019.71 4556.07,2027.81 4559.42,2032.60" allow="pedestrian delivery bicycle"/>
    <edge id="-1060093181" from="9739791357" to="9739791358" priority="1" type="highway.service" numLanes="1" speed="5.56" allow="pedestrian delivery bicycle"/>
    <edge id="-1087176578#0" from="320146655" to="893491713" priority="11" type="highway.secondary" numLanes="1" speed="13.89" disallow="tram rail_urban rail rail_electric rail_fast ship">
        <param key="ref" value="D 419"/>
    </edge>
    <edge id="-1087176578#1" from="9738012139" to="320146655" priority="11" type="highway.secondary" numLanes="1" speed="13.89" disallow="tram rail_urban rail rail_electric rail_fast ship">
        <param key="ref" value="D 419"/>
    </edge>
    <edge id="-1102940998" from="10092652003" to="10092651998" priority="1" type="highway.service" numLanes="1" speed="5.56" shape="4432.61,2519.14 4434.04,2540.34 4432.22,2542.15 4351.86,2552.34 4348.22,2549.84 4346.04,2528.71" allow="pedestrian delivery bicycle"/>
    <edge id="-1102940999" from="257393439" to="330294454" priority="12" type="highway.primary" numLanes="1" speed="13.89" disallow="tram rail_urban rail rail_electric rail_fast ship">
        <param key="ref" value="D 619"/>
    </edge>
    <edge id="-1102941002" from="6175534891" to="893476912" priority="12" type="highway.primary" numLanes="1" speed="19.44" shape="3529.21,3361.25 3505.54,3386.52 3426.94,3470.25" disallow="tram rail_urban rail rail_electric rail_fast ship">
        <param key="ref" value="D 619"/>
    </edge>
    <edge id="-1102941004" from="6175534910" to="893475339" priority="12" type="highway.primary" numLanes="1" speed="13.89" disallow="tram rail_urban rail rail_electric rail_fast ship">
        <param key="ref" value="D 619"/>
    </edge>
    <edge id="-1160860396" from="10797055459" to="5714092135" priority="12" type="highway.primary" numLanes="1" speed="19.44" disallow="tram rail_urban rail rail_electric rail_fast ship">
        <param key="ref" value="D 619"/>
    </edge>
    <edge id="-1165351162" from="10839349125" to="10839349120" priority="1" type="highway.service" numLanes="1" speed="5.56" shape="4103.22,1723.28 4103.22,1727.66 4107.62,1734.57 4136.31,1735.31 4138.51,1732.47 4140.88,1723.67" allow="pedestrian delivery bicycle"/>
    <edge id="-1165351178#0" from="8010499212" to="cluster_333745272_333745273" priority="11" type="highway.secondary" numLanes="1" speed="8.33" shape="3251.01,2171.26 3253.64,2175.00 3279.47,2212.18 3284.24,2219.29 3285.96,2221.88" disallow="tram rail_urban rail rail_electric rail_fast ship">
        <param key="ref" value="D 12"/>
    </edge>
    <edge id="-1165351178#1" from="257392587" to="8010499212" priority="11" type="highway.secondary" numLanes="1" speed="8.33" disallow="tram rail_urban rail rail_electric rail_fast ship">
        <param key="ref" value="D 12"/>
    </edge>
    <edge id="-1218021457#0" from="11286178328" to="11286178331" priority="1" type="highway.service" numLanes="1" speed="5.56" shape="2976.37,3781.02 2980.31,3833.52 2996.54,3847.92" allow="pedestrian delivery bicycle"/>
    <edge id="-1218021457#1" from="11286178329" to="11286178328" priority="1" type="highway.service" numLanes="1" speed="5.56" allow="pedestrian delivery bicycle"/>
    <edge id="-1218021458#0" from="11286178329" to="11286178328" priority="1" type="highway.service" numLanes="1" speed="5.56" shape="2974.48,3755.77 3015.34,3792.88 3016.33,3795.84 3015.63,3798.50 3013.85,3801.46 3009.80,3805.41 3006.73,3805.90 3003.66,3805.41 3000.49,3803.63 2976.37,3781.02" allow="pedestrian delivery bicycle"/>
    <edge id="-1218021459" from="11286178340" to="11286178329" priority="1" type="highway.service" numLanes="1" speed="5.56" shape="2953.58,3736.18 2964.60,3746.82 2974.48,3755.77" allow="pedestrian delivery bicycle"/>
    <edge id="-1218021461" from="11286178346" to="893476473" priority="1" type="highway.service" numLanes="1" speed="5.56" allow="pedestrian delivery bicycle"/>
    <edge id="-123654790#0" from="1512162101" to="330307374" priority="3" type="highway.residential" numLanes="1" speed="13.89" shape="4618.61,2103.07 4618.60,2116.14 4618.88,2144.36 4618.46,2160.18" disallow="tram rail_urban rail rail_electric rail_fast ship"/>
    <edge id="-123654790#1" from="1512162018" to="1512162101" priority="3" type="highway.residential" numLanes="1" speed="13.89" shape="4608.50,2032.44 4614.32,2055.54 4617.16,2075.13 4618.61,2103.07" disallow="tram rail_urban rail rail_electric rail_fast ship"/>
    <edge id="-1265461528" from="11755058186" to="8727447119" priority="1" type="highway.service" numLanes="1" speed="5.56" allow="pedestrian delivery bicycle"/>
    <edge id="-1338620587" from="12382383810" to="12382383808" priority="1" type="highway.service" numLanes="1" speed="5.56" shape="3486.55,1611.47 3485.13,1655.56 3462.62,1662.22 3448.77,1666.32" allow="pedestrian delivery bicycle"/>
    <edge id="-1338623740#0" from="12382402811" to="1512177514" priority="1" type="highway.service" numLanes="1" speed="5.56" shape="4019.07,1871.26 4034.44,1872.98 4038.12,1836.47" allow="pedestrian delivery bicycle"/>
    <edge id="-1338623740#1" from="1512177503" to="12382402811" priority="1" type="highway.service" numLanes="1" speed="5.56" allow="pedestrian delivery bicycle"/>
    <edge id="-1338623741" from="12382402812" to="12382402811" priority="1" type="highway.service" numLanes="1" speed="5.56" allow="pedestrian delivery bicycle"/>
    <edge id="-1338626636" from="12382427431" to="1515745900" priority="3" type="highway.residential" numLanes="1" speed="8.33" disallow="tram rail_urban rail rail_electric rail_fast ship"/>
    <edge id="-1338628098" from="12382434251" to="1512177568" priority="3" type="highway.residential" numLanes="1" speed="13.89" shape="3730.26,1985.63 3740.08,1986.79 3749.25,1985.09" disallow="tram rail_urban rail rail_electric rail_fast ship"/>
    <edge id="-1338628360#0" from="12382457088" to="12382457089" priority="3" type="highway.residential" numLanes="1" speed="13.89" disallow="tram rail_urban rail rail_electric rail_fast ship"/>
    <edge id="-1338628360#1" from="1512177578" to="12382457088" priority="3" type="highway.residential" numLanes="1" speed="13.89" shape="3792.20,1992.55 3792.84,1986.00 3775.72,1983.91" disallow="tram rail_urban rail rail_electric rail_fast ship"/>
    <edge id="-1338638162#0" from="5409613952" to="12382541841" priority="1" type="highway.service" numLanes="1" speed="5.56" allow="pedestrian delivery bicycle"/>
    <edge id="-1338638162#1" from="5409613949" to="5409613952" priority="1" type="highway.service" numLanes="1" speed="5.56" allow="pedestrian delivery bicycle"/>
    <edge id="-1338638162#2" from="606141719" to="5409613949" priority="1" type="highway.service" numLanes="1" speed="5.56" allow="pedestrian delivery bicycle"/>
    <edge id="-1338638162#3" from="5409613946" to="606141719" priority="1" type="highway.service" numLanes="1" speed="5.56" allow="pedestrian delivery bicycle"/>
    <edge id="-1338638162#4" from="606141718" to="5409613946" priority="1" type="highway.service" numLanes="1" speed="5.56" allow="pedestrian delivery bicycle"/>
    <edge id="-1338638162#5" from="5409613943" to="606141718" priority="1" type="highway.service" numLanes="1" speed="5.56" allow="pedestrian delivery bicycle"/>
    <edge id="-1338638162#6" from="606141716" to="5409613943" priority="1" type="highway.service" numLanes="1" speed="5.56" allow="pedestrian delivery bicycle"/>
    <edge id="-1338638162#7" from="12384481432" to="606141716" priority="1" type="highway.service" numLanes="1" speed="5.56" allow="pedestrian delivery bicycle"/>
    <edge id="-1338638162#8" from="12382541840" to="12384481432" priority="1" type="highway.service" numLanes="1" speed="5.56" allow="pedestrian delivery bicycle"/>
    <edge id="-1338639585#0" from="606141604" to="606141685" priority="1" type="highway.service" numLanes="1" speed="5.56" shape="3264.99,2302.96 3264.41,2301.99 3261.96,2299.97 3258.97,2298.88 3255.78,2298.85 3252.78,2299.90 3252.42,2300.19" allow="pedestrian delivery bicycle"/>
    <edge id="-1338639585#1" from="12382544242" to="606141604" priority="1" type="highway.service" numLanes="1" speed="5.56" shape="3266.20,2310.97 3266.66,2307.82 3266.04,2304.71 3264.99,2302.96" allow="pedestrian delivery bicycle"/>
    <edge id="-1338639585#2" from="12382544251" to="12382544242" priority="1" type="highway.service" numLanes="1" speed="5.56" shape="3257.13,2317.38 3257.71,2317.31 3260.06,2316.97 3262.72,2315.67 3264.84,2313.59 3266.20,2310.97" allow="pedestrian delivery bicycle"/>
    <edge id="-1338639585#3" from="12382544239" to="12382544251" priority="1" type="highway.service" numLanes="1" speed="5.56" shape="3248.29,2306.13 3247.96,2307.68 3248.31,2310.62 3249.57,2313.29 3251.60,2315.45 3254.20,2316.86 3257.13,2317.38" allow="pedestrian delivery bicycle"/>
    <edge id="-1338639585#4" from="606141685" to="12382544239" priority="1" type="highway.service" numLanes="1" speed="5.56" shape="3252.42,2300.19 3250.30,2301.88 3248.63,2304.58 3248.29,2306.13" allow="pedestrian delivery bicycle"/>
    <edge id="-1338639586" from="12382544242" to="964709791" priority="1" type="highway.service" numLanes="1" speed="5.56" shape="3266.20,2310.97 3271.43,2313.71 3279.28,2317.81" allow="pedestrian delivery bicycle"/>
    <edge id="-1338657754" from="12382738300" to="1512177563" priority="3" type="highway.residential" numLanes="1" speed="13.89" shape="3708.30,1947.71 3696.68,1949.72 3689.10,1958.22" disallow="tram rail_urban rail rail_electric rail_fast ship"/>
    <edge id="-1338658424" from="2772675727" to="1512177531" priority="3" type="highway.residential" numLanes="1" speed="13.89" shape="3746.22,1881.88 3738.96,1870.86 3731.65,1869.75" disallow="tram rail_urban rail rail_electric rail_fast ship"/>
    <edge id="-1338666902#0" from="12382807906" to="12382788033" priority="1" type="highway.service" numLanes="1" speed="5.56" allow="pedestrian delivery bicycle"/>
    <edge id="-1338666902#1" from="12382807905" to="12382807906" priority="1" type="highway.service" numLanes="1" speed="5.56" allow="pedestrian delivery bicycle"/>
    <edge id="-1338666903" from="12382807906" to="1515803145" priority="1" type="highway.service" numLanes="1" speed="5.56" allow="pedestrian delivery bicycle"/>
    <edge id="-1338666904" from="5322172244" to="12382807907" priority="1" type="highway.service" numLanes="1" speed="5.56" allow="pedestrian delivery bicycle"/>
    <edge id="-1338671111" from="1512177558" to="2772675792" priority="1" type="highway.service" numLanes="1" speed="5.56" allow="pedestrian delivery bicycle"/>
    <edge id="-1338671112" from="2772675590" to="2772675792" priority="1" type="highway.service" numLanes="1" speed="5.56" allow="pedestrian delivery bicycle"/>
    <edge id="-1338677246" from="12382896403" to="8010554996" priority="1" type="highway.service" numLanes="1" speed="5.56" allow="pedestrian delivery bicycle"/>
    <edge id="-1338677247" from="12382896404" to="11573930090" priority="1" type="highway.service" numLanes="1" speed="5.56" allow="pedestrian delivery bicycle"/>
    <edge id="-1338697409#0" from="12383031712" to="1515764395" priority="3" type="highway.residential" numLanes="1" speed="13.89" shape="3130.76,1902.02 3138.72,1903.70 3143.81,1901.15" disallow="tram rail_urban rail rail_electric rail_fast ship"/>
    <edge id="-1338697409#1" from="12383031711" to="12383031712" priority="3" type="highway.residential" numLanes="1" speed="13.89" disallow="tram rail_urban rail rail_electric rail_fast ship"/>
    <edge id="-1338700817" from="12383069436" to="cluster_7554446263_892734207" priority="1" type="highway.service" numLanes="1" speed="5.56" shape="4731.98,2140.71 4700.76,2151.23 4690.79,2146.96" allow="pedestrian delivery bicycle"/>
    <edge id="-1338706250" from="12383094006" to="4272294591" priority="1" type="highway.service" numLanes="1" speed="2.78" allow="pedestrian delivery bicycle"/>
    <edge id="-1338706251#0" from="12383094013" to="12383094007" priority="1" type="highway.service" numLanes="1" speed="5.56" allow="pedestrian delivery bicycle"/>
    <edge id="-1338706251#1" from="12383094009" to="12383094013" priority="1" type="highway.service" numLanes="1" speed="5.56" allow="pedestrian delivery bicycle"/>