<?xml version="1.0" encoding="UTF-8"?>

<!-- generated on 2025-04-04 16:23:35 by Eclipse SUMO netconvert Version 1.19.0
<configuration xmlns:xsi="http://www.w3.org/2001/XMLSchema-instance" xsi:noNamespaceSchemaLocation="http://sumo.dlr.de/xsd/netconvertConfiguration.xsd">

    <input>
        <osm-files value="nangis/nangis.osm"/>
    </input>

    <output>
        <output-file value="nangis/nangis.net.xml"/>
    </output>

    <projection>
        <proj.utm value="true"/>
    </projection>

    <processing>
        <geometry.remove value="true"/>
        <roundabouts.guess value="true"/>
    </processing>

    <tls_building>
        <tls.discard-simple value="true"/>
        <tls.join value="true"/>
        <tls.ignore-internal-junction-jam value="true"/>
        <tls.guess-signals value="true"/>
    </tls_building>

    <ramp_guessing>
        <ramps.guess value="true"/>
    </ramp_guessing>

    <edge_removal>
        <remove-edges.isolated value="true"/>
    </edge_removal>

    <junctions>
        <junctions.join value="true"/>
    </junctions>

    <report>
        <verbose value="true"/>
    </report>

</configuration>
-->

<net version="1.16" junctionCornerDetail="5" limitTurnSpeed="5.50" tlsIgnoreInternalJunctionJam="1" xmlns:xsi="http://www.w3.org/2001/XMLSchema-instance" xsi:noNamespaceSchemaLocation="http://sumo.dlr.de/xsd/net_file.xsd">

    <location netOffset="-497095.76,-5375769.42" convBoundary="0.00,0.00,7239.82,7677.66" origBoundary="2.505475,48.424568,3.301254,48.649231" projParameter="+proj=utm +zone=31 +ellps=WGS84 +datum=WGS84 +units=m +no_defs"/>

    <type id="highway.cycleway" priority="1" numLanes="1" speed="5.56" allow="bicycle" oneway="0" width="2.00"/>
    <type id="highway.footway" priority="1" numLanes="1" speed="2.78" allow="pedestrian" oneway="1" width="2.00"/>
    <type id="highway.living_street" priority="2" numLanes="1" speed="2.78" disallow="tram rail_urban rail rail_electric rail_fast ship" oneway="0"/>
    <type id="highway.path" priority="1" numLanes="1" speed="5.56" allow="pedestrian bicycle" oneway="0" width="2.00"/>
    <type id="highway.pedestrian" priority="1" numLanes="1" speed="2.78" allow="pedestrian" oneway="1" width="2.00"/>
    <type id="highway.primary" priority="12" numLanes="2" speed="27.78" disallow="tram rail_urban rail rail_electric rail_fast ship" oneway="0"/>
    <type id="highway.residential" priority="3" numLanes="1" speed="13.89" disallow="tram rail_urban rail rail_electric rail_fast ship" oneway="0"/>
    <type id="highway.secondary" priority="11" numLanes="1" speed="27.78" disallow="tram rail_urban rail rail_electric rail_fast ship" oneway="0"/>
    <type id="highway.secondary_link" priority="6" numLanes="1" speed="22.22" disallow="tram rail_urban rail rail_electric rail_fast ship" oneway="0"/>
    <type id="highway.service" priority="1" numLanes="1" speed="5.56" allow="pedestrian delivery bicycle" oneway="0"/>
    <type id="highway.steps" priority="1" numLanes="1" speed="1.39" allow="pedestrian" oneway="1" width="2.00"/>
    <type id="highway.tertiary" priority="10" numLanes="1" speed="22.22" disallow="tram rail_urban rail rail_electric rail_fast ship" oneway="0"/>
    <type id="highway.tertiary_link" priority="5" numLanes="1" speed="22.22" disallow="tram rail_urban rail rail_electric rail_fast ship" oneway="0"/>
    <type id="highway.track" priority="1" numLanes="1" speed="5.56" allow="pedestrian motorcycle moped bicycle" oneway="0"/>
    <type id="highway.unclassified" priority="4" numLanes="1" speed="13.89" disallow="tram rail_urban rail rail_electric rail_fast ship" oneway="0"/>
    <type id="railway.rail" priority="20" numLanes="1" speed="44.44" allow="rail" oneway="1"/>

    <edge id=":10092651989_0" function="internal">
        <lane id=":10092651989_0_0" index="0" disallow="tram rail_urban rail rail_electric rail_fast ship" speed="27.78" length="8.88" shape="4901.81,2677.30 4903.75,2679.27 4904.85,2680.82 4905.72,2682.55 4907.01,2685.02"/>
        <lane id=":10092651989_0_1" index="1" disallow="tram rail_urban rail rail_electric rail_fast ship" speed="27.78" length="8.88" shape="4899.65,2679.67 4901.37,2681.42 4902.32,2682.82 4903.08,2684.37 4904.22,2686.59"/>
    </edge>
    <edge id=":10092651989_2" function="internal">
        <lane id=":10092651989_2_0" index="0" disallow="tram rail_urban rail rail_electric rail_fast ship" speed="15.65" length="7.19" shape="4897.49,2682.03 4898.98,2683.52 4899.81,2684.72 4900.41,2686.08 4901.21,2688.07"/>
        <lane id=":10092651989_2_1" index="1" disallow="tram rail_urban rail rail_electric rail_fast ship" speed="14.11" length="5.83" shape="4895.33,2684.39 4896.52,2685.60 4897.17,2686.59 4897.63,2687.71 4898.26,2689.32"/>
    </edge>
    <edge id=":10092651998_0" function="internal">
        <lane id=":10092651998_0_0" index="0" allow="pedestrian delivery bicycle" speed="6.12" length="7.82" shape="4344.77,2532.05 4345.02,2530.62 4346.09,2529.50 4347.98,2528.69 4350.70,2528.19"/>
    </edge>
    <edge id=":10092651998_1" function="internal">
        <lane id=":10092651998_1_0" index="0" allow="pedestrian delivery bicycle" speed="3.65" length="4.67" shape="4344.77,2532.05 4345.45,2530.78 4346.20,2530.30 4347.04,2530.61 4347.96,2531.72"/>
    </edge>
    <edge id=":10092651998_2" function="internal">
        <lane id=":10092651998_2_0" index="0" disallow="tram rail_urban rail rail_electric rail_fast ship" speed="13.89" length="9.44" shape="4341.33,2529.33 4350.70,2528.19"/>
    </edge>
    <edge id=":10092651998_3" function="internal">
        <lane id=":10092651998_3_0" index="0" allow="pedestrian delivery bicycle" speed="6.05" length="7.84" shape="4341.33,2529.33 4344.10,2529.17 4346.13,2529.51 4347.42,2530.36 4347.96,2531.72"/>
    </edge>
    <edge id=":10092652003_0" function="internal">
        <lane id=":10092652003_0_0" index="0" allow="pedestrian delivery bicycle" speed="6.20" length="7.83" shape="4431.24,2522.48 4431.53,2521.05 4432.63,2519.94 4434.52,2519.13 4437.22,2518.63"/>
    </edge>
    <edge id=":10092652003_1" function="internal">
        <lane id=":10092652003_1_0" index="0" allow="pedestrian delivery bicycle" speed="3.65" length="4.67" shape="4431.24,2522.48 4431.95,2521.23 4432.72,2520.78 4433.55,2521.12 4434.43,2522.26"/>
    </edge>
    <edge id=":10092652003_2" function="internal">
        <lane id=":10092652003_2_0" index="0" disallow="tram rail_urban rail rail_electric rail_fast ship" speed="13.89" length="9.41" shape="4427.87,2519.66 4437.22,2518.63"/>
    </edge>
    <edge id=":10092652003_3" function="internal">
        <lane id=":10092652003_3_0" index="0" allow="pedestrian delivery bicycle" speed="6.04" length="7.88" shape="4427.87,2519.66 4430.66,2519.56 4432.68,2519.96 4433.94,2520.86 4434.43,2522.26"/>
    </edge>
    <edge id=":10796991359_0" function="internal">
        <lane id=":10796991359_0_0" index="0" allow="bicycle" speed="5.56" length="6.25" width="2.00" shape="4280.29,2243.68 4278.91,2242.43 4277.91,2241.60 4277.07,2240.66 4276.15,2239.08"/>
    </edge>
    <edge id=":10796991359_1" function="internal">
        <lane id=":10796991359_1_0" index="0" allow="bicycle" speed="4.80" length="5.08" width="2.00" shape="4280.29,2243.68 4279.20,2242.37 4278.68,2241.21 4278.74,2240.19 4279.37,2239.31"/>
    </edge>
    <edge id=":10796991359_2" function="internal">
        <lane id=":10796991359_2_0" index="0" allow="bicycle" speed="3.03" length="2.97" width="2.00" shape="4280.29,2243.68 4280.11,2242.78 4280.29,2242.24 4280.82,2242.06 4281.72,2242.23"/>
    </edge>
    <edge id=":10796991359_3" function="internal">
        <lane id=":10796991359_3_0" index="0" allow="bicycle" speed="3.53" length="2.78" width="2.00" shape="4277.65,2237.59 4278.00,2238.33 4278.39,2239.03 4278.84,2239.45 4279.37,2239.31"/>
    </edge>
    <edge id=":10796991359_4" function="internal">
        <lane id=":10796991359_4_0" index="0" allow="bicycle" speed="5.56" length="6.38" width="2.00" shape="4277.65,2237.59 4278.47,2239.29 4279.16,2240.44 4280.11,2241.33 4281.72,2242.23"/>
    </edge>
    <edge id=":10796991359_5" function="internal">
        <lane id=":10796991359_5_0" index="0" allow="bicycle" speed="2.94" length="3.08" width="2.00" shape="4277.65,2237.59 4277.83,2238.52 4277.64,2239.08 4277.08,2239.27 4276.15,2239.08"/>
    </edge>
    <edge id=":10796991359_6" function="internal">
        <lane id=":10796991359_6_0" index="0" allow="bicycle" speed="5.37" length="4.14" width="2.00" shape="4275.86,2242.94 4276.41,2242.11 4276.65,2241.19 4276.56,2240.18 4276.15,2239.08"/>
    </edge>
    <edge id=":10796991359_7" function="internal">
        <lane id=":10796991359_7_0" index="0" disallow="tram rail_urban rail rail_electric rail_fast ship" speed="8.33" length="4.98" shape="4276.31,2243.35 4277.29,2242.24 4277.96,2241.48 4278.67,2240.75 4279.76,2239.76"/>
    </edge>
    <edge id=":10796991359_8" function="internal">
        <lane id=":10796991359_8_0" index="0" allow="bicycle" speed="5.87" length="5.61" width="2.00" shape="4276.76,2243.75 4277.99,2242.63 4279.23,2242.00 4280.48,2241.87 4281.72,2242.23"/>
    </edge>
    <edge id=":10797055459_0" function="internal">
        <lane id=":10797055459_0_0" index="0" disallow="tram rail_urban rail rail_electric rail_fast ship" speed="19.44" length="7.86" shape="4985.71,2749.61 4978.95,2745.59"/>
    </edge>
    <edge id=":10797055459_1" function="internal">
        <lane id=":10797055459_1_0" index="0" disallow="tram rail_urban rail rail_electric rail_fast ship" speed="19.44" length="11.30" shape="4983.96,2736.72 4985.72,2739.29 4985.72,2742.01 4985.70,2744.64 4987.42,2746.90"/>
    </edge>
    <edge id=":10797055460_0" function="internal">
        <lane id=":10797055460_0_0" index="0" disallow="tram rail_urban rail rail_electric rail_fast ship" speed="19.44" length="0.29" shape="4828.21,2693.41 4827.92,2693.37"/>
    </edge>
    <edge id=":10797055460_1" function="internal">
        <lane id=":10797055460_1_0" index="0" disallow="tram rail_urban rail rail_electric rail_fast ship" speed="19.44" length="0.30" shape="4828.21,2690.18 4828.51,2690.21"/>
    </edge>
    <edge id=":10797055461_0" function="internal">
        <lane id=":10797055461_0_0" index="0" disallow="tram rail_urban rail rail_electric rail_fast ship" speed="5.90" length="9.09" shape="4881.83,2695.09 4884.63,2695.00 4886.43,2694.13 4887.22,2692.48 4887.02,2690.04"/>
    </edge>
    <edge id=":10797055461_1" function="internal">
        <lane id=":10797055461_1_0" index="0" disallow="tram rail_urban rail rail_electric rail_fast ship" speed="19.44" length="10.97" shape="4881.83,2695.09 4884.95,2695.35 4887.30,2695.59 4889.61,2696.07 4892.57,2697.03"/>
    </edge>
    <edge id=":10797055461_2" function="internal">
        <lane id=":10797055461_2_0" index="0" disallow="tram rail_urban rail rail_electric rail_fast ship" speed="27.78" length="8.23" shape="4887.30,2698.20 4887.50,2695.76 4887.62,2694.08 4887.51,2692.41 4887.02,2690.04"/>
        <lane id=":10797055461_2_1" index="1" disallow="tram rail_urban rail rail_electric rail_fast ship" speed="27.78" length="8.23" shape="4890.50,2698.38 4890.72,2695.94 4890.89,2694.26 4890.83,2692.59 4890.36,2690.21"/>
    </edge>
    <edge id=":10797055461_4" function="internal">
        <lane id=":10797055461_4_0" index="0" disallow="tram rail_urban rail rail_electric rail_fast ship" speed="3.87" length="3.06" shape="4890.50,2698.38 4890.67,2697.53 4891.08,2697.01 4891.71,2696.85 4892.57,2697.03"/>
    </edge>
    <edge id=":10797055463_0" function="internal">
        <lane id=":10797055463_0_0" index="0" disallow="tram rail_urban rail rail_electric rail_fast ship" speed="19.44" length="3.16" shape="4920.52,2707.52 4921.40,2707.86 4921.99,2708.10 4922.57,2708.37 4923.41,2708.79"/>
    </edge>
    <edge id=":10797055463_1" function="internal">
        <lane id=":10797055463_1_0" index="0" disallow="tram rail_urban rail rail_electric rail_fast ship" speed="5.10" length="3.25" shape="4923.20,2702.49 4923.89,2702.27 4924.70,2702.39 4925.52,2702.70 4926.26,2703.06"/>
        <lane id=":10797055463_1_1" index="1" disallow="tram rail_urban rail rail_electric rail_fast ship" speed="3.44" length="1.12" shape="4925.08,2705.08 4924.77,2705.35 4924.63,2705.58 4924.65,2705.77 4924.84,2705.92"/>
    </edge>
    <edge id=":10797055464_0" function="internal">
        <lane id=":10797055464_0_0" index="0" disallow="tram rail_urban rail rail_electric rail_fast ship" speed="7.84" length="11.74" shape="4903.21,2694.43 4903.07,2696.79 4901.79,2698.90 4899.37,2700.76 4895.82,2702.36"/>
        <lane id=":10797055464_0_1" index="1" disallow="tram rail_urban rail rail_electric rail_fast ship" speed="7.17" length="11.74" shape="4898.54,2689.98 4899.42,2693.17 4899.07,2695.80 4897.51,2697.86 4894.74,2699.35"/>
    </edge>
    <edge id=":10797055464_2" function="internal">
        <lane id=":10797055464_2_0" index="0" disallow="tram rail_urban rail rail_electric rail_fast ship" speed="19.44" length="17.34" shape="4892.76,2697.10 4909.01,2703.15"/>
    </edge>
    <edge id=":10797055464_3" function="internal">
        <lane id=":10797055464_3_0" index="0" disallow="tram rail_urban rail rail_electric rail_fast ship" speed="3.87" length="2.37" shape="4892.76,2697.10 4894.43,2697.79 4894.89,2698.11"/>
    </edge>
    <edge id=":10797055464_4" function="internal">
        <lane id=":10797055464_4_0" index="0" disallow="tram rail_urban rail rail_electric rail_fast ship" speed="3.87" length="1.85" shape="4894.89,2698.11 4895.32,2698.40 4895.42,2698.92 4894.74,2699.35"/>
    </edge>
    <edge id=":10839349120_0" function="internal">
        <lane id=":10839349120_0_0" index="0" allow="pedestrian delivery bicycle" speed="6.05" length="6.18" shape="4144.85,1725.30 4143.58,1725.56 4142.51,1726.34 4141.64,1727.67 4140.96,1729.52"/>
    </edge>
    <edge id=":10839349120_1" function="internal">
        <lane id=":10839349120_1_0" index="0" disallow="tram rail_urban rail rail_electric rail_fast ship" speed="13.89" length="9.61" shape="4144.85,1725.30 4135.24,1725.21"/>
    </edge>
    <edge id=":10839349120_2" function="internal">
        <lane id=":10839349120_2_0" index="0" disallow="tram rail_urban rail rail_electric rail_fast ship" speed="13.89" length="9.61" shape="4135.27,1722.01 4144.88,1722.11"/>
    </edge>
    <edge id=":10839349120_3" function="internal">
        <lane id=":10839349120_3_0" index="0" allow="pedestrian delivery bicycle" speed="6.70" length="3.55" shape="4135.27,1722.01 4138.51,1722.51 4138.74,1722.66"/>
    </edge>
    <edge id=":10839349120_7" function="internal">
        <lane id=":10839349120_7_0" index="0" allow="pedestrian delivery bicycle" speed="6.70" length="7.96" shape="4138.74,1722.66 4140.54,1723.92 4141.36,1726.26 4140.96,1729.52"/>
    </edge>
    <edge id=":10839349120_4" function="internal">
        <lane id=":10839349120_4_0" index="0" allow="pedestrian delivery bicycle" speed="4.81" length="5.33" shape="4137.87,1728.69 4138.06,1727.18 4137.68,1726.10 4136.74,1725.44 4135.24,1725.21"/>
    </edge>
    <edge id=":10839349120_5" function="internal">
        <lane id=":10839349120_5_0" index="0" allow="pedestrian delivery bicycle" speed="7.66" length="10.42" shape="4137.87,1728.69 4138.98,1725.79 4140.52,1723.72 4142.48,1722.50 4144.88,1722.11"/>
    </edge>
    <edge id=":10839349120_6" function="internal">
        <lane id=":10839349120_6_0" index="0" allow="pedestrian delivery bicycle" speed="3.65" length="4.67" shape="4137.87,1728.69 4138.96,1727.74 4139.84,1727.56 4140.50,1728.15 4140.96,1729.52"/>
    </edge>
    <edge id=":10839349125_0" function="internal">
        <lane id=":10839349125_0_0" index="0" allow="pedestrian delivery bicycle" speed="5.05" length="5.00" shape="4101.62,1727.97 4101.43,1726.61 4100.85,1725.64 4099.88,1725.05 4098.53,1724.85"/>
    </edge>
    <edge id=":10839349125_1" function="internal">
        <lane id=":10839349125_1_0" index="0" allow="pedestrian delivery bicycle" speed="6.84" length="10.18" shape="4101.62,1727.97 4102.02,1725.22 4103.21,1723.26 4105.19,1722.09 4107.97,1721.73"/>
    </edge>
    <edge id=":10839349125_2" function="internal">
        <lane id=":10839349125_2_0" index="0" allow="pedestrian delivery bicycle" speed="4.12" length="5.30" shape="4101.62,1727.97 4102.49,1726.59 4103.38,1726.11 4104.30,1726.53 4105.25,1727.87"/>
    </edge>
    <edge id=":10839349125_3" function="internal">
        <lane id=":10839349125_3_0" index="0" allow="pedestrian delivery bicycle" speed="4.51" length="5.48" shape="4107.94,1724.93 4106.05,1725.09 4104.97,1725.64 4104.71,1726.56 4105.25,1727.87"/>
    </edge>
    <edge id=":10839349125_4" function="internal">
        <lane id=":10839349125_4_0" index="0" disallow="tram rail_urban rail rail_electric rail_fast ship" speed="13.89" length="9.41" shape="4107.94,1724.93 4098.53,1724.85"/>
    </edge>
    <edge id=":10839349125_5" function="internal">
        <lane id=":10839349125_5_0" index="0" disallow="tram rail_urban rail rail_electric rail_fast ship" speed="13.89" length="9.42" shape="4098.55,1721.65 4107.97,1721.73"/>
    </edge>
    <edge id=":10839349125_6" function="internal">
        <lane id=":10839349125_6_0" index="0" allow="pedestrian delivery bicycle" speed="8.64" length="2.01" shape="4098.55,1721.65 4100.00,1722.05 4100.41,1722.34"/>
    </edge>
    <edge id=":10839349125_7" function="internal">
        <lane id=":10839349125_7_0" index="0" allow="pedestrian delivery bicycle" speed="8.64" length="7.40" shape="4100.41,1722.34 4101.61,1723.21 4103.36,1725.15 4105.25,1727.87"/>
    </edge>
    <edge id=":10839349252_0" function="internal">
        <lane id=":10839349252_0_0" index="0" disallow="tram rail_urban rail rail_electric rail_fast ship" speed="8.33" length="0.10" shape="3430.23,2384.03 3430.23,2384.03"/>
    </edge>
    <edge id=":10839349252_1" function="internal">
        <lane id=":10839349252_1_0" index="0" disallow="tram rail_urban rail rail_electric rail_fast ship" speed="11.11" length="0.10" shape="3430.27,2380.83 3430.28,2380.83"/>
    </edge>
    <edge id=":10839349259_0" function="internal">
        <lane id=":10839349259_0_0" index="0" allow="pedestrian delivery bicycle" speed="5.56" length="18.83" shape="3255.92,2342.09 3255.21,2346.38 3253.90,2351.29 3252.19,2356.06 3250.26,2359.94"/>
    </edge>
    <edge id=":10839349259_1" function="internal">
        <lane id=":10839349259_1_0" index="0" allow="pedestrian delivery bicycle" speed="5.56" length="20.07" shape="3255.92,2342.09 3254.71,2349.01 3252.59,2353.73 3249.57,2356.25 3245.64,2356.56"/>
    </edge>
    <edge id=":10839349279_0" function="internal">
        <lane id=":10839349279_0_0" index="0" allow="pedestrian delivery bicycle" speed="5.14" length="4.90" shape="3353.79,1996.93 3352.48,1996.77 3351.39,1997.05 3350.53,1997.77 3349.91,1998.94"/>
    </edge>
    <edge id=":10839349279_1" function="internal">
        <lane id=":10839349279_1_0" index="0" allow="pedestrian delivery bicycle" speed="7.10" length="9.56" shape="3353.79,1996.93 3351.38,1995.92 3349.74,1994.41 3348.87,1992.39 3348.77,1989.87"/>
    </edge>
    <edge id=":10839349279_2" function="internal">
        <lane id=":10839349279_2_0" index="0" allow="pedestrian delivery bicycle" speed="3.65" length="4.67" shape="3353.79,1996.93 3352.85,1995.85 3352.67,1994.97 3353.27,1994.30 3354.64,1993.85"/>
    </edge>
    <edge id=":10839349279_3" function="internal">
        <lane id=":10839349279_3_0" index="0" allow="pedestrian delivery bicycle" speed="5.33" length="5.00" shape="3351.95,1990.20 3352.01,1991.49 3352.48,1992.53 3353.35,1993.31 3354.64,1993.85"/>
    </edge>
    <edge id=":10839349279_4" function="internal">
        <lane id=":10839349279_4_0" index="0" disallow="tram rail_urban rail rail_electric rail_fast ship" speed="13.89" length="9.02" shape="3351.95,1990.20 3351.66,1992.85 3351.34,1994.66 3350.82,1996.42 3349.91,1998.94"/>
    </edge>
    <edge id=":10839349279_5" function="internal">
        <lane id=":10839349279_5_0" index="0" disallow="tram rail_urban rail rail_electric rail_fast ship" speed="13.89" length="8.22" shape="3346.90,1997.84 3347.73,1995.54 3348.21,1993.94 3348.50,1992.29 3348.77,1989.87"/>
    </edge>
    <edge id=":10839349279_6" function="internal">
        <lane id=":10839349279_6_0" index="0" allow="pedestrian delivery bicycle" speed="6.94" length="3.14" shape="3346.90,1997.84 3348.15,1995.51 3348.53,1995.18"/>
    </edge>
    <edge id=":10839349279_7" function="internal">
        <lane id=":10839349279_7_0" index="0" allow="pedestrian delivery bicycle" speed="6.94" length="6.60" shape="3348.53,1995.18 3349.86,1994.07 3352.02,1993.51 3354.64,1993.85"/>
    </edge>
    <edge id=":10839349305_0" function="internal">
        <lane id=":10839349305_0_0" index="0" disallow="tram rail_urban rail rail_electric rail_fast ship" speed="13.89" length="5.06" shape="3474.42,2129.32 3474.33,2134.38"/>
    </edge>
    <edge id=":10839349305_1" function="internal">
        <lane id=":10839349305_1_0" index="0" disallow="tram rail_urban rail rail_electric rail_fast ship" speed="13.89" length="5.06" shape="3471.13,2134.32 3471.22,2129.26"/>
    </edge>
    <edge id=":11286127411_0" function="internal">
        <lane id=":11286127411_0_0" index="0" disallow="tram rail_urban rail rail_electric rail_fast ship" speed="5.82" length="9.13" shape="4888.00,2226.65 4885.43,2225.93 4883.57,2226.34 4882.44,2227.86 4882.03,2230.50"/>
    </edge>
    <edge id=":11286127411_1" function="internal">
        <lane id=":11286127411_1_0" index="0" disallow="tram rail_urban rail rail_electric rail_fast ship" speed="22.22" length="14.95" shape="4888.00,2226.65 4874.21,2220.86"/>
    </edge>
    <edge id=":11286127411_2" function="internal">
        <lane id=":11286127411_2_0" index="0" disallow="tram rail_urban rail rail_electric rail_fast ship" speed="3.65" length="1.44" shape="4888.00,2226.65 4887.22,2225.44"/>
    </edge>
    <edge id=":11286127411_9" function="internal">
        <lane id=":11286127411_9_0" index="0" disallow="tram rail_urban rail rail_electric rail_fast ship" speed="3.65" length="3.23" shape="4887.22,2225.44 4887.17,2224.54 4887.85,2223.97 4889.27,2223.71"/>
    </edge>
    <edge id=":11286127411_3" function="internal">
        <lane id=":11286127411_3_0" index="0" disallow="tram rail_urban rail rail_electric rail_fast ship" speed="22.22" length="15.04" shape="4875.40,2217.89 4889.27,2223.71"/>
    </edge>
    <edge id=":11286127411_4" function="internal">
        <lane id=":11286127411_4_0" index="0" disallow="tram rail_urban rail rail_electric rail_fast ship" speed="9.64" length="3.74" shape="4875.40,2217.89 4878.36,2219.70 4878.53,2219.91"/>
    </edge>
    <edge id=":11286127411_5" function="internal">
        <lane id=":11286127411_5_0" index="0" disallow="tram rail_urban rail rail_electric rail_fast ship" speed="3.65" length="1.44" shape="4875.40,2217.89 4876.22,2219.08"/>
    </edge>
    <edge id=":11286127411_10" function="internal">
        <lane id=":11286127411_10_0" index="0" disallow="tram rail_urban rail rail_electric rail_fast ship" speed="9.64" length="11.46" shape="4878.53,2219.91 4880.45,2222.40 4881.67,2226.00 4882.03,2230.50"/>
    </edge>
    <edge id=":11286127411_11" function="internal">
        <lane id=":11286127411_11_0" index="0" disallow="tram rail_urban rail rail_electric rail_fast ship" speed="3.65" length="3.23" shape="4876.22,2219.08 4876.29,2219.97 4875.63,2220.56 4874.21,2220.86"/>
    </edge>
    <edge id=":11286127411_6" function="internal">
        <lane id=":11286127411_6_0" index="0" disallow="tram rail_urban rail rail_electric rail_fast ship" speed="8.39" length="11.33" shape="4878.83,2230.45 4878.59,2226.96 4877.74,2224.21 4876.28,2222.17 4874.21,2220.86"/>
    </edge>
    <edge id=":11286127411_7" function="internal">
        <lane id=":11286127411_7_0" index="0" disallow="tram rail_urban rail rail_electric rail_fast ship" speed="7.48" length="15.98" shape="4878.83,2230.45 4879.55,2225.83 4881.53,2223.17 4884.77,2222.46 4889.27,2223.71"/>
    </edge>
    <edge id=":11286127411_8" function="internal">
        <lane id=":11286127411_8_0" index="0" disallow="tram rail_urban rail rail_electric rail_fast ship" speed="3.65" length="4.67" shape="4878.83,2230.45 4879.65,2229.26 4880.46,2228.87 4881.25,2229.29 4882.03,2230.50"/>
    </edge>
    <edge id=":11286178328_0" function="internal">
        <lane id=":11286178328_0_0" index="0" allow="pedestrian delivery bicycle" speed="5.56" length="12.46" shape="2975.50,3790.83 2974.57,3778.40"/>
    </edge>
    <edge id=":11286178328_1" function="internal">
        <lane id=":11286178328_1_0" index="0" allow="pedestrian delivery bicycle" speed="5.56" length="16.85" shape="2975.50,3790.83 2975.68,3785.39 2977.25,3782.85 2980.21,3783.22 2984.55,3786.49"/>
    </edge>
    <edge id=":11286178328_2" function="internal">
        <lane id=":11286178328_2_0" index="0" allow="pedestrian delivery bicycle" speed="3.65" length="4.67" shape="2975.50,3790.83 2976.21,3789.57 2976.98,3789.11 2977.81,3789.45 2978.69,3790.59"/>
    </edge>
    <edge id=":11286178328_3" function="internal">
        <lane id=":11286178328_3_0" index="0" allow="pedestrian delivery bicycle" speed="4.69" length="6.83" shape="2982.36,3788.83 2980.60,3787.50 2979.40,3787.35 2978.77,3788.38 2978.69,3790.59"/>
    </edge>
    <edge id=":11286178328_4" function="internal">
        <lane id=":11286178328_4_0" index="0" allow="pedestrian delivery bicycle" speed="5.56" length="13.40" shape="2982.36,3788.83 2979.66,3786.46 2977.24,3784.20 2975.43,3781.65 2974.57,3778.40"/>
    </edge>
    <edge id=":11286178328_5" function="internal">
        <lane id=":11286178328_5_0" index="0" allow="pedestrian delivery bicycle" speed="3.65" length="4.67" shape="2982.36,3788.83 2982.04,3787.43 2982.29,3786.57 2983.13,3786.26 2984.55,3786.49"/>
    </edge>
    <edge id=":11286178328_6" function="internal">
        <lane id=":11286178328_6_0" index="0" allow="pedestrian delivery bicycle" speed="5.56" length="11.20" shape="2977.76,3778.16 2978.47,3781.09 2979.93,3782.92 2982.01,3784.45 2984.55,3786.49"/>
    </edge>
    <edge id=":11286178328_7" function="internal">
        <lane id=":11286178328_7_0" index="0" allow="pedestrian delivery bicycle" speed="5.56" length="12.46" shape="2977.76,3778.16 2978.69,3790.59"/>
    </edge>
    <edge id=":11286178328_8" function="internal">
        <lane id=":11286178328_8_0" index="0" allow="pedestrian delivery bicycle" speed="3.65" length="4.67" shape="2977.76,3778.16 2977.05,3779.42 2976.28,3779.88 2975.46,3779.54 2974.57,3778.40"/>
    </edge>
    <edge id=":11286178329_0" function="internal">
        <lane id=":11286178329_0_0" index="0" allow="pedestrian delivery bicycle" speed="5.56" length="11.02" shape="2973.59,3765.40 2973.60,3762.16 2973.72,3759.64 2973.20,3757.42 2971.34,3755.09"/>
    </edge>
    <edge id=":11286178329_1" function="internal">
        <lane id=":11286178329_1_0" index="0" allow="pedestrian delivery bicycle" speed="5.56" length="16.60" shape="2973.59,3765.40 2973.78,3760.06 2975.34,3757.54 2978.28,3757.86 2982.60,3761.00"/>
    </edge>
    <edge id=":11286178329_2" function="internal">
        <lane id=":11286178329_2_0" index="0" allow="pedestrian delivery bicycle" speed="3.65" length="4.67" shape="2973.59,3765.40 2974.30,3764.14 2975.07,3763.68 2975.90,3764.02 2976.78,3765.16"/>
    </edge>
    <edge id=":11286178329_3" function="internal">
        <lane id=":11286178329_3_0" index="0" allow="pedestrian delivery bicycle" speed="4.68" length="6.76" shape="2980.45,3763.36 2978.69,3762.09 2977.50,3761.96 2976.86,3762.98 2976.78,3765.16"/>
    </edge>
    <edge id=":11286178329_4" function="internal">
        <lane id=":11286178329_4_0" index="0" allow="pedestrian delivery bicycle" speed="5.56" length="12.30" shape="2980.45,3763.36 2971.34,3755.09"/>
    </edge>
    <edge id=":11286178329_5" function="internal">
        <lane id=":11286178329_5_0" index="0" allow="pedestrian delivery bicycle" speed="3.65" length="4.67" shape="2980.45,3763.36 2980.10,3761.97 2980.34,3761.10 2981.18,3760.78 2982.60,3761.00"/>
    </edge>
    <edge id=":11286178329_6" function="internal">
        <lane id=":11286178329_6_0" index="0" allow="pedestrian delivery bicycle" speed="5.56" length="12.30" shape="2973.50,3752.72 2982.60,3761.00"/>
    </edge>
    <edge id=":11286178329_7" function="internal">
        <lane id=":11286178329_7_0" index="0" allow="pedestrian delivery bicycle" speed="5.56" length="13.25" shape="2973.50,3752.72 2975.52,3755.38 2976.39,3758.33 2976.63,3761.58 2976.78,3765.16"/>
    </edge>
    <edge id=":11286178329_8" function="internal">
        <lane id=":11286178329_8_0" index="0" allow="pedestrian delivery bicycle" speed="3.65" length="4.67" shape="2973.50,3752.72 2973.85,3754.12 2973.60,3754.98 2972.77,3755.31 2971.34,3755.09"/>
    </edge>
    <edge id=":11286178331_0" function="internal">
        <lane id=":11286178331_0_0" index="0" allow="pedestrian delivery bicycle" speed="3.65" length="4.67" shape="2997.60,3846.73 2997.97,3848.12 2997.74,3848.99 2996.91,3849.32 2995.48,3849.12"/>
    </edge>
    <edge id=":11286178340_0" function="internal">
        <lane id=":11286178340_0_0" index="0" allow="pedestrian delivery bicycle" speed="4.81" length="5.34" shape="2956.54,3741.26 2955.30,3740.37 2954.17,3740.18 2953.14,3740.69 2952.22,3741.90"/>
    </edge>
    <edge id=":11286178340_1" function="internal">
        <lane id=":11286178340_1_0" index="0" allow="pedestrian delivery bicycle" speed="7.69" length="10.43" shape="2956.54,3741.26 2954.53,3738.88 2953.45,3736.54 2953.31,3734.22 2954.10,3731.94"/>
    </edge>
    <edge id=":11286178340_2" function="internal">
        <lane id=":11286178340_2_0" index="0" allow="pedestrian delivery bicycle" speed="3.65" length="4.67" shape="2956.54,3741.26 2956.23,3739.85 2956.50,3739.00 2957.34,3738.70 2958.76,3738.96"/>
    </edge>
    <edge id=":11286178340_3" function="internal">