<?xml version="1.0" encoding="UTF-8"?>

<!-- generated on 2025-04-04 16:23:36 by Eclipse SUMO netconvert Version 1.19.0
<configuration xmlns:xsi="http://www.w3.org/2001/XMLSchema-instance" xsi:noNamespaceSchemaLocation="http://sumo.dlr.de/xsd/netconvertConfiguration.xsd">

    <input>
        <sumo-net-file value="nangis/nangis.net.xml"/>
    </input>

    <output>
        <plain-output-prefix value="nangis/nangis"/>
    </output>

    <processing>
        <geometry.min-radius.fix.railways value="false"/>
        <geometry.max-grade.fix value="false"/>
        <offset.disable-normalization value="true"/>
        <lefthand value="0"/>
    </processing>

    <tls_building>
        <tls.ignore-internal-junction-jam value="1"/>
    </tls_building>

    <junctions>
        <no-turnarounds value="true"/>
        <junctions.corner-detail value="5"/>
        <junctions.limit-turn-speed value="5.50"/>
        <rectangular-lane-cut value="0"/>
    </junctions>

    <pedestrian>
        <walkingareas value="0"/>
    </pedestrian>

</configuration>
-->

<nodes version="1.16" xmlns:xsi="http://www.w3.org/2001/XMLSchema-instance" xsi:noNamespaceSchemaLocation="http://sumo.dlr.de/xsd/nodes_file.xsd">
    <location netOffset="-497095.76,-5375769.42" convBoundary="0.00,0.00,7239.82,7677.66" origBoundary="2.505475,48.424568,3.301254,48.649231" projParameter="+proj=utm +zone=31 +ellps=WGS84 +datum=WGS84 +units=m +no_defs"/>

    <node id="10092651989" x="4898.03" y="2684.69" type="priority"/>
    <node id="10092651998" x="4346.04" y="2528.71" type="priority"/>
    <node id="10092652003" x="4432.61" y="2519.14" type="priority"/>
    <node id="10698084690" x="3856.33" y="1920.81" type="dead_end"/>
    <node id="10698084692" x="3973.56" y="1867.62" type="dead_end"/>
    <node id="10698084693" x="3968.54" y="1919.35" type="dead_end"/>
    <node id="10698084697" x="4027.10" y="1889.86" type="dead_end"/>
    <node id="10698084698" x="4022.50" y="1925.18" type="dead_end"/>
    <node id="10796991359" x="4278.71" y="2240.69" type="priority"/>
    <node id="10797055459" x="4983.30" y="2746.20" type="priority"/>
    <node id="10797055460" x="4828.19" y="2691.79" type="priority"/>
    <node id="10797055461" x="4889.05" y="2695.75" type="priority"/>
    <node id="10797055463" x="4922.00" y="2708.08" type="priority"/>
    <node id="10797055464" x="4899.25" y="2699.44" type="priority"/>
    <node id="10839349120" x="4140.88" y="1723.67" type="priority"/>
    <node id="10839349125" x="4103.22" y="1723.28" type="priority"/>
    <node id="10839349252" x="3430.25" y="2382.43" type="priority"/>
    <node id="10839349259" x="3255.76" y="2343.78" type="priority"/>
    <node id="10839349279" x="3349.94" y="1994.22" type="priority"/>
    <node id="10839349305" x="3472.79" y="2131.02" type="priority"/>
    <node id="11286127411" x="4880.57" y="2221.68" type="priority"/>
    <node id="11286178328" x="2976.37" y="3781.02" type="right_before_left"/>
    <node id="11286178329" x="2974.48" y="3755.77" type="right_before_left"/>
    <node id="11286178331" x="2996.54" y="3847.92" type="priority" fringe="inner">
        <param key="buffer_stop" value="true"/>
    </node>
    <node id="11286178340" x="2953.58" y="3736.18" type="priority"/>
    <node id="11286178346" x="3231.62" y="3589.58" type="priority"/>
    <node id="11504266076" x="4058.81" y="1838.23" type="priority"/>
    <node id="11573930090" x="3783.85" y="2579.89" type="priority"/>
    <node id="11755058186" x="4196.09" y="1297.95" type="right_before_left"/>
    <node id="12185761160" x="4269.98" y="1709.36" type="priority"/>
    <node id="12382383808" x="3448.77" y="1666.32" type="right_before_left"/>
    <node id="12382383810" x="3486.55" y="1611.47" type="priority"/>
    <node id="12382402809" x="3719.07" y="1914.84" type="priority"/>
    <node id="12382402811" x="4019.07" y="1871.26" type="right_before_left"/>
    <node id="12382402812" x="4018.32" y="1881.29" type="priority"/>
    <node id="12382414869" x="3754.94" y="2291.04" type="priority"/>
    <node id="12382427431" x="3757.49" y="2138.23" type="priority"/>
    <node id="12382434251" x="3730.26" y="1985.63" type="priority"/>
    <node id="12382457088" x="3775.72" y="1983.91" type="priority"/>
    <node id="12382457089" x="3774.99" y="1990.68" type="priority"/>
    <node id="12382541840" x="3020.02" y="2358.15" type="priority"/>
    <node id="12382541841" x="3196.12" y="2359.66" type="right_before_left"/>
    <node id="12382544239" x="3248.29" y="2306.13" type="right_before_left"/>
    <node id="12382544242" x="3266.20" y="2310.97" type="right_before_left"/>
    <node id="12382544251" x="3257.13" y="2317.38" type="right_before_left"/>
    <node id="12382544261" x="3063.66" y="2254.12" type="priority"/>
    <node id="12382738300" x="3708.30" y="1947.71" type="priority"/>
    <node id="12382788033" x="3642.26" y="2519.35" type="priority"/>
    <node id="12382807905" x="3645.95" y="2468.55" type="priority"/>
    <node id="12382807906" x="3643.00" y="2508.65" type="right_before_left"/>
    <node id="12382807907" x="3651.46" y="2397.59" type="priority"/>
    <node id="12382807909" x="3700.04" y="2474.96" type="priority"/>
    <node id="12382896403" x="3739.71" y="2567.53" type="right_before_left"/>
    <node id="12382896404" x="3784.34" y="2569.33" type="right_before_left"/>
    <node id="12382998842" x="3114.50" y="1877.80" type="priority"/>
    <node id="12383013196" x="3203.16" y="2254.47" type="priority"/>
    <node id="12383031711" x="3124.81" y="1900.94" type="priority"/>
    <node id="12383031712" x="3130.76" y="1902.02" type="priority"/>
    <node id="12383069436" x="4731.98" y="2140.71" type="priority"/>
    <node id="12383094006" x="4788.15" y="2103.53" type="right_before_left"/>
    <node id="12383094007" x="4737.27" y="2294.49" type="priority"/>
    <node id="12383094008" x="4786.17" y="2294.68" type="priority"/>
    <node id="12383094009" x="4775.46" y="2294.50" type="right_before_left"/>
    <node id="12383094013" x="4745.68" y="2294.54" type="right_before_left"/>
    <node id="12383094020" x="4763.30" y="2508.15" type="priority"/>
    <node id="12383182158" x="4288.70" y="2215.10" type="right_before_left"/>
    <node id="12383182162" x="4298.07" y="2243.27" type="right_before_left"/>
    <node id="12383249769" x="3661.21" y="2122.58" type="dead_end"/>
    <node id="12383249770" x="3608.86" y="2019.49" type="dead_end"/>
    <node id="12383249773" x="3652.24" y="1986.84" type="dead_end"/>
    <node id="12383253637" x="3955.90" y="2165.79" type="priority"/>
    <node id="12383253638" x="4027.82" y="2064.24" type="priority"/>
    <node id="12383253646" x="4010.38" y="2090.95" type="dead_end"/>
    <node id="12383253647" x="4020.42" y="2092.19" type="dead_end"/>
    <node id="12383253648" x="4014.74" y="2084.80" type="dead_end"/>
    <node id="12383282408" x="4270.30" y="1928.62" type="dead_end"/>
    <node id="12383282424" x="4245.56" y="1896.38" type="dead_end"/>
    <node id="12383296734" x="3516.01" y="2445.84" type="priority"/>
    <node id="12383296735" x="3512.32" y="2478.32" type="priority"/>
    <node id="12383333221" x="3251.07" y="2332.47" type="right_before_left"/>
    <node id="12383377442" x="3256.82" y="2332.61" type="right_before_left"/>
    <node id="12383377443" x="3103.46" y="2330.50" type="right_before_left"/>
    <node id="12383377444" x="3086.52" y="2304.56" type="right_before_left"/>
    <node id="12383377445" x="3086.46" y="2330.51" type="right_before_left"/>
    <node id="12383377449" x="3217.21" y="2305.91" type="right_before_left"/>
    <node id="12383377450" x="3216.96" y="2331.66" type="right_before_left"/>
    <node id="12383377451" x="3233.48" y="2305.93" type="right_before_left"/>
    <node id="12383377452" x="3233.35" y="2332.04" type="right_before_left"/>
    <node id="12383377453" x="3103.27" y="2304.67" type="right_before_left"/>
    <node id="12383377454" x="3070.92" y="2275.38" type="priority"/>
    <node id="12383377455" x="3071.07" y="2254.06" type="right_before_left"/>
    <node id="12383390767" x="3547.18" y="2658.70" type="priority"/>
    <node id="12383397686" x="3574.10" y="2569.49" type="priority"/>
    <node id="12383397687" x="3575.59" y="2546.90" type="priority"/>
    <node id="12383397690" x="3763.04" y="2304.67" type="right_before_left"/>
    <node id="12384481432" x="3035.36" y="2358.19" type="right_before_left"/>
    <node id="12384481433" x="3035.38" y="2350.41" type="priority"/>
    <node id="12384673141" x="2949.38" y="1736.97" type="priority"/>
    <node id="12384673145" x="2938.25" y="1736.05" type="priority"/>
    <node id="12384673147" x="2930.27" y="1728.28" type="priority"/>
    <node id="12384673159" x="2917.73" y="1749.84" type="priority"/>
    <node id="12391834453" x="4008.47" y="1654.24" type="priority"/>
    <node id="12391834454" x="3999.43" y="1673.12" type="priority"/>
    <node id="12392057684" x="3759.27" y="1813.85" type="priority"/>
    <node id="12392087975" x="3439.36" y="1630.15" type="right_before_left"/>
    <node id="12392253040" x="3374.42" y="2013.37" type="priority"/>
    <node id="12392253041" x="3306.48" y="2033.48" type="priority"/>
    <node id="12392253042" x="3323.28" y="2055.17" type="priority"/>
    <node id="12392348590" x="3469.64" y="2297.35" type="priority"/>
    <node id="12392348591" x="3444.63" y="2297.01" type="priority"/>
    <node id="12392528691" x="3677.92" y="2666.65" type="right_before_left"/>
    <node id="12392528692" x="3751.04" y="2671.97" type="priority"/>
    <node id="12393622658" x="3934.29" y="2827.85" type="priority"/>
    <node id="12394219518" x="3956.11" y="2037.23" type="dead_end"/>
    <node id="12394219526" x="3991.59" y="1875.02" type="dead_end"/>
    <node id="12394219531" x="3972.59" y="1877.66" type="dead_end"/>
    <node id="12394219536" x="3866.52" y="2118.02" type="dead_end"/>
    <node id="12394219551" x="3876.20" y="2039.42" type="dead_end"/>
    <node id="12394219555" x="3905.99" y="2190.21" type="dead_end"/>
    <node id="12394313605" x="3298.38" y="2293.73" type="right_before_left"/>
    <node id="12394313606" x="3322.26" y="2275.95" type="priority"/>
    <node id="12394452870" x="4114.74" y="1990.75" type="priority"/>
    <node id="12394596843" x="3774.47" y="2213.35" type="priority"/>
    <node id="12394647630" x="3919.75" y="2177.17" type="priority"/>
    <node id="12394647634" x="3974.15" y="2140.67" type="dead_end"/>
    <node id="12396502918" x="5144.13" y="2962.31" type="priority"/>
    <node id="12396536690" x="4241.79" y="2348.57" type="right_before_left"/>
    <node id="12396536691" x="4249.70" y="2365.50" type="priority"/>
    <node id="12396536692" x="4175.47" y="2404.65" type="priority"/>
    <node id="12396536693" x="4155.02" y="2393.68" type="right_before_left"/>
    <node id="12396536694" x="4205.11" y="2387.66" type="priority"/>
    <node id="12396536696" x="4073.26" y="2546.90" type="priority"/>
    <node id="12396536697" x="4074.80" y="2558.38" type="dead_end"/>
    <node id="12396536698" x="4088.01" y="2542.31" type="priority"/>
    <node id="12396536699" x="3968.69" y="2562.68" type="priority"/>
    <node id="12396536700" x="3995.88" y="2559.18" type="priority"/>
    <node id="12396574901" x="3992.51" y="2572.88" type="priority"/>
    <node id="12396574902" x="4005.40" y="2557.87" type="priority"/>
    <node id="12396574903" x="4114.25" y="2504.25" type="priority"/>
    <node id="12396574904" x="4113.68" y="2505.93" type="priority"/>
    <node id="12396574905" x="4138.59" y="2431.11" type="priority"/>
    <node id="12396574906" x="4134.15" y="2444.53" type="dead_end"/>
    <node id="12396713074" x="4368.09" y="1610.30" type="priority"/>
    <node id="12396713075" x="4309.36" y="1609.85" type="priority"/>
    <node id="12396713076" x="4285.93" y="1413.33" type="dead_end"/>
    <node id="12396713078" x="4121.88" y="1374.51" type="right_before_left"/>
    <node id="12396713079" x="4103.70" y="1398.90" type="priority"/>
    <node id="12488704405" x="3468.06" y="2382.91" type="priority"/>
    <node id="12488704406" x="3604.67" y="2376.82" type="priority"/>
    <node id="12488704407" x="3639.49" y="2369.35" type="priority"/>
    <node id="12505171244" x="4327.30" y="2177.37" type="priority"/>
    <node id="12505354710" x="3973.74" y="1333.94" type="priority"/>
    <node id="12521106705" x="3470.60" y="2242.06" type="priority"/>
    <node id="12521106707" x="3498.13" y="2245.12" type="priority"/>
    <node id="12719407064" x="3642.12" y="1889.78" type="priority"/>
    <node id="12719407066" x="3608.15" y="2086.81" type="priority"/>
    <node id="12719407067" x="3588.25" y="2084.51" type="priority"/>
    <node id="12719407076" x="3660.67" y="2084.74" type="dead_end"/>
    <node id="12719672899" x="3535.65" y="2008.18" type="dead_end"/>
    <node id="12719896102" x="3644.86" y="1987.31" type="dead_end"/>
    <node id="12719896103" x="3537.99" y="2000.41" type="dead_end"/>
    <node id="12719896113" x="3718.82" y="2028.17" type="dead_end"/>
    <node id="12719896114" x="3717.72" y="2045.48" type="dead_end"/>
    <node id="12719896115" x="3737.90" y="2051.99" type="dead_end"/>
    <node id="12719896116" x="3736.96" y="2076.74" type="dead_end"/>
    <node id="12719896117" x="3738.16" y="2046.67" type="dead_end"/>
    <node id="12719896118" x="3758.77" y="2141.97" type="dead_end"/>
    <node id="12719896120" x="3743.53" y="2152.55" type="dead_end"/>
    <node id="12719896123" x="3749.37" y="2183.09" type="dead_end"/>
    <node id="12719896124" x="3731.41" y="2171.13" type="dead_end"/>
    <node id="12719896125" x="3746.45" y="2167.82" type="dead_end"/>
    <node id="12719896126" x="3746.04" y="2183.15" type="dead_end"/>
    <node id="131839003" x="3298.87" y="2243.22" type="priority"/>
    <node id="131839265" x="4151.86" y="2448.35" type="priority"/>
    <node id="131839272" x="3625.73" y="2572.55" type="priority"/>
    <node id="131843853" x="4548.05" y="0.00" type="priority"/>
    <node id="1378068834" x="4512.96" y="1902.82" type="priority"/>
    <node id="1512161710" x="4256.61" y="1805.31" type="right_before_left"/>
    <node id="1512161715" x="4440.53" y="1815.32" type="priority"/>
    <node id="1512161726" x="4574.59" y="1818.89" type="priority"/>
    <node id="1512161762" x="4544.91" y="1834.00" type="priority"/>
    <node id="1512161777" x="4436.72" y="1843.45" type="dead_end"/>
    <node id="1512161782" x="4575.25" y="1853.17" type="priority"/>
    <node id="1512161790" x="4284.17" y="1856.06" type="priority"/>
    <node id="1512161793" x="4258.07" y="1856.80" type="right_before_left"/>
    <node id="1512161820" x="4511.21" y="1894.29" type="priority"/>
    <node id="1512161824" x="4483.32" y="1893.90" type="priority"/>
    <node id="1512161830" x="4466.77" y="1897.24" type="dead_end"/>
    <node id="1512161835" x="4339.72" y="1898.58" type="priority"/>
    <node id="1512161836" x="4312.40" y="1899.23" type="dead_end"/>
    <node id="1512161839" x="4371.69" y="1903.91" type="right_before_left"/>
    <node id="1512161842" x="4355.51" y="1903.93" type="priority"/>
    <node id="1512161849" x="4390.89" y="1904.18" type="right_before_left"/>
    <node id="1512161854" x="4407.89" y="1904.41" type="right_before_left"/>
    <node id="1512161857" x="4578.99" y="1907.00" type="priority"/>
    <node id="1512161886" x="4390.40" y="1934.02" type="priority"/>
    <node id="1512161888" x="4407.47" y="1934.35" type="priority"/>
    <node id="1512161905" x="4355.85" y="1936.65" type="priority"/>
    <node id="1512161910" x="4520.52" y="1939.92" type="priority"/>
    <node id="1512161935" x="4495.64" y="1979.03" type="priority"/>
    <node id="1512161966" x="4365.69" y="2011.57" type="priority"/>
    <node id="1512161988" x="4326.58" y="2017.77" type="priority"/>
    <node id="1512161989" x="4343.14" y="2017.92" type="right_before_left"/>
    <node id="1512162012" x="4627.03" y="2030.94" type="priority"/>
    <node id="1512162018" x="4608.50" y="2032.44" type="priority"/>
    <node id="1512162033" x="4502.19" y="2034.33" type="priority"/>
    <node id="1512162067" x="4558.96" y="2077.03" type="priority"/>
    <node id="1512162085" x="4304.76" y="2097.06" type="right_before_left"/>
    <node id="1512162101" x="4618.61" y="2103.07" type="priority"/>
    <node id="1512162103" x="4320.82" y="2117.31" type="priority"/>
    <node id="1512162104" x="4388.90" y="2118.01" type="priority"/>
    <node id="1512162105" x="4351.71" y="2117.79" type="priority"/>
    <node id="1512162125" x="4351.14" y="2177.36" type="priority"/>
    <node id="1512162154" x="4285.49" y="2215.82" type="priority"/>
    <node id="1512162165" x="4786.78" y="2250.85" type="priority"/>
    <node id="1512162178" x="4489.97" y="2256.15" type="priority"/>
    <node id="1512162190" x="4491.93" y="2279.26" type="priority"/>
    <node id="1512177208" x="4270.30" y="1455.57" type="priority"/>
    <node id="1512177214" x="4138.56" y="1514.27" type="priority"/>
    <node id="1512177218" x="4045.58" y="1519.77" type="priority"/>
    <node id="1512177228" x="4147.69" y="1532.32" type="priority"/>
    <node id="1512177230" x="3984.86" y="1541.39" type="priority"/>
    <node id="1512177239" x="3930.99" y="1558.39" type="priority"/>
    <node id="1512177242" x="4042.03" y="1560.66" type="priority"/>
    <node id="1512177256" x="3989.51" y="1576.68" type="priority"/>
    <node id="1512177258" x="4209.66" y="1580.04" type="priority"/>
    <node id="1512177271" x="3927.66" y="1586.74" type="priority"/>
    <node id="1512177280" x="4045.82" y="1596.65" type="priority"/>
    <node id="1512177283" x="4266.20" y="1594.87" type="priority"/>
    <node id="1512177288" x="4266.19" y="1605.17" type="priority"/>
    <node id="1512177293" x="3971.27" y="1605.63" type="priority"/>
    <node id="1512177299" x="4266.19" y="1613.82" type="priority"/>
    <node id="1512177301" x="3739.27" y="1623.86" type="priority"/>
    <node id="1512177303" x="3678.07" y="1639.97" type="priority"/>
    <node id="1512177309" x="3903.13" y="1642.24" type="priority"/>
    <node id="1512177319" x="3851.12" y="1646.10" type="priority"/>
    <node id="1512177322" x="4123.71" y="1647.21" type="priority"/>
    <node id="1512177326" x="4217.69" y="1649.36" type="priority"/>
    <node id="1512177355" x="4035.99" y="1667.39" type="priority"/>
    <node id="1512177369" x="4129.69" y="1666.02" type="priority"/>
    <node id="1512177380" x="3773.02" y="1693.13" type="priority"/>
    <node id="1512177382" x="3831.00" y="1691.77" type="priority"/>
    <node id="1512177389" x="3676.80" y="1713.81" type="priority"/>
    <node id="1512177392" x="4035.29" y="1719.71" type="priority"/>
    <node id="1512177426" x="3734.37" y="1747.99" type="priority"/>
    <node id="1512177429" x="3704.22" y="1753.49" type="priority"/>
    <node id="1512177471" x="3753.40" y="1803.23" type="priority"/>
    <node id="1512177503" x="4022.19" y="1834.82" type="right_before_left"/>
    <node id="1512177514" x="4038.12" y="1836.47" type="right_before_left"/>
    <node id="1512177529" x="3687.56" y="1868.33" type="priority"/>
    <node id="1512177531" x="3731.65" y="1869.75" type="priority"/>
    <node id="1512177536" x="3703.06" y="1891.21" type="priority"/>
    <node id="1512177545" x="3657.91" y="1897.64" type="priority"/>
    <node id="1512177558" x="3733.09" y="1935.54" type="priority"/>
    <node id="1512177563" x="3689.10" y="1958.22" type="priority"/>
    <node id="1512177568" x="3749.25" y="1985.09" type="priority"/>
    <node id="1512177578" x="3792.20" y="1992.55" type="priority"/>
    <node id="1512177583" x="3690.44" y="2010.74" type="priority"/>
    <node id="1512177585" x="3789.19" y="2024.00" type="priority"/>
    <node id="1515745836" x="3690.04" y="2027.00" type="dead_end"/>
    <node id="1515745840" x="3788.37" y="2032.40" type="dead_end"/>
    <node id="1515745843" x="3867.34" y="2038.57" type="dead_end"/>
    <node id="1515745855" x="3955.20" y="2046.95" type="dead_end"/>
    <node id="1515745864" x="3712.46" y="2075.49" type="priority"/>
    <node id="1515745866" x="3759.93" y="2077.95" type="priority"/>
    <node id="1515745873" x="3907.17" y="2107.08" type="dead_end"/>
    <node id="1515745894" x="3954.36" y="2123.96" type="dead_end"/>
    <node id="1515745895" x="3860.15" y="2120.38" type="dead_end"/>
    <node id="1515745896" x="3696.39" y="2124.98" type="priority"/>
    <node id="1515745897" x="3710.57" y="2125.56" type="right_before_left"/>
    <node id="1515745900" x="3757.49" y="2128.35" type="right_before_left"/>
    <node id="1515745940" x="3898.26" y="2156.26" type="priority"/>
    <node id="1515745948" x="3919.10" y="2160.22" type="priority"/>
    <node id="1515745955" x="3772.66" y="2163.81" type="priority"/>
    <node id="1515745964" x="3944.28" y="2164.13" type="priority"/>
    <node id="1515745986" x="3773.38" y="2182.72" type="right_before_left"/>
    <node id="1515746027" x="3694.95" y="2215.99" type="priority"/>
    <node id="1515746036" x="4305.16" y="2256.83" type="priority"/>
    <node id="1515746049" x="3694.30" y="2265.25" type="priority"/>
    <node id="1515746056" x="3693.88" y="2270.12" type="priority"/>
    <node id="1515746060" x="4421.54" y="2292.10" type="priority"/>
    <node id="1515746093" x="4294.27" y="2321.62" type="priority"/>
    <node id="1515746094" x="4292.46" y="2322.70" type="priority"/>
    <node id="1515746119" x="3690.70" y="2357.05" type="priority"/>
    <node id="1515746144" x="4492.62" y="2393.85" type="priority"/>
    <node id="1515746152" x="4463.46" y="2436.39" type="priority"/>
    <node id="1515746153" x="4130.40" y="2455.87" type="priority"/>
    <node id="1515746155" x="4118.91" y="2490.35" type="right_before_left"/>
    <node id="1515746180" x="4039.33" y="2553.18" type="right_before_left"/>
    <node id="1515746182" x="3991.13" y="2559.83" type="right_before_left"/>
    <node id="1515746184" x="4075.37" y="2562.58" type="priority"/>
    <node id="1515746189" x="3905.70" y="2570.69" type="priority"/>
    <node id="1515746204" x="4470.18" y="2587.07" type="priority"/>
    <node id="1515746209" x="3900.00" y="2689.54" type="priority"/>
    <node id="1515746212" x="3673.79" y="2702.72" type="priority"/>
    <node id="1515746214" x="3805.86" y="2716.51" type="priority"/>
    <node id="1515746230" x="4252.04" y="2758.50" type="priority"/>
    <node id="1515746234" x="4282.85" y="2792.07" type="right_before_left"/>
    <node id="1515746240" x="4285.15" y="2850.07" type="priority"/>
    <node id="1515764150" x="3395.52" y="1470.23" type="priority"/>
    <node id="1515764172" x="3545.75" y="1675.21" type="priority"/>
    <node id="1515764186" x="3490.18" y="1693.77" type="priority"/>
    <node id="1515764191" x="3462.24" y="1701.37" type="dead_end"/>
    <node id="1515764213" x="3402.14" y="1725.59" type="priority"/>
    <node id="1515764260" x="3641.56" y="1737.14" type="priority"/>
    <node id="1515764273" x="3523.48" y="1755.04" type="priority"/>
    <node id="1515764298" x="2900.20" y="1768.18" type="priority"/>
    <node id="1515764301" x="3573.72" y="1787.60" type="right_before_left"/>
    <node id="1515764305" x="3645.31" y="1805.98" type="priority"/>
    <node id="1515764311" x="3533.49" y="1826.82" type="priority"/>
    <node id="1515764315" x="3603.57" y="1833.93" type="dead_end"/>
    <node id="1515764331" x="3668.78" y="1840.62" type="priority"/>
    <node id="1515764344" x="3626.49" y="1867.39" type="dead_end"/>
    <node id="1515764361" x="3535.18" y="1875.93" type="priority"/>
    <node id="1515764368" x="3535.85" y="1885.43" type="priority"/>
    <node id="1515764374" x="3582.96" y="1890.37" type="priority"/>
    <node id="1515764379" x="3553.47" y="1900.63" type="priority"/>
    <node id="1515764395" x="3143.81" y="1901.15" type="priority"/>
    <node id="1515764412" x="3609.28" y="1943.86" type="priority"/>
    <node id="1515764416" x="3329.06" y="1948.99" type="priority"/>
    <node id="1515764428" x="3643.42" y="1951.83" type="dead_end"/>
    <node id="1515764432" x="3572.27" y="1951.95" type="priority"/>
    <node id="1515764440" x="3181.49" y="1958.99" type="priority"/>
    <node id="1515764446" x="3536.64" y="1959.64" type="priority"/>
    <node id="1515764449" x="3086.06" y="1964.73" type="priority"/>
    <node id="1515764481" x="3082.55" y="2006.91" type="priority"/>
    <node id="1515802358" x="3653.83" y="2023.35" type="dead_end"/>
    <node id="1515802363" x="3530.71" y="2008.39" type="dead_end"/>
    <node id="1515802376" x="3332.22" y="2014.11" type="priority"/>
    <node id="1515802397" x="3093.62" y="2022.05" type="priority"/>
    <node id="1515802404" x="3072.97" y="2024.73" type="priority"/>
    <node id="1515802416" x="3659.88" y="2025.84" type="dead_end"/>
    <node id="1515802435" x="3054.76" y="2037.16" type="priority"/>
    <node id="1515802441" x="3536.89" y="2046.75" type="priority"/>
    <node id="1515802446" x="3590.20" y="2042.86" type="priority"/>
    <node id="1515802451" x="3280.65" y="2051.83" type="priority"/>
    <node id="1515802478" x="3382.66" y="2071.69" type="priority"/>
    <node id="1515802497" x="3238.85" y="2080.12" type="priority"/>
    <node id="1515802513" x="3522.29" y="2086.66" type="priority"/>
    <node id="1515802528" x="3503.51" y="2094.17" type="right_before_left"/>
    <node id="1515802553" x="3648.11" y="2122.95" type="priority"/>
    <node id="1515802558" x="3574.90" y="2128.06" type="priority"/>
    <node id="1515802587" x="3596.39" y="2137.57" type="dead_end"/>
    <node id="1515802589" x="3596.80" y="2148.80" type="dead_end"/>
    <node id="1515802597" x="3607.44" y="2160.33" type="priority"/>
    <node id="1515802623" x="3534.54" y="2167.94" type="priority"/>
    <node id="1515802630" x="3577.35" y="2176.96" type="dead_end"/>
    <node id="1515802662" x="3196.00" y="2193.43" type="priority"/>
    <node id="1515802663" x="3494.74" y="2194.34" type="priority"/>
    <node id="1515802664" x="3546.46" y="2195.33" type="priority"/>
    <node id="1515802703" x="3144.88" y="2222.31" type="priority"/>
    <node id="1515802706" x="3652.82" y="2219.84" type="right_before_left"/>
    <node id="1515802711" x="3262.06" y="2222.92" type="priority"/>
    <node id="1515802742" x="3471.05" y="2228.08" type="priority"/>
    <node id="1515802746" x="3570.61" y="2234.56" type="priority"/>
    <node id="1515802776" x="3562.41" y="2246.96" type="right_before_left"/>
    <node id="1515802808" x="3197.45" y="2254.55" type="priority"/>
    <node id="1515802871" x="3314.74" y="2264.91" type="priority"/>
    <node id="1515802880" x="3639.57" y="2269.42" type="priority"/>
    <node id="1515802882" x="3552.57" y="2271.25" type="priority"/>
    <node id="1515803079" x="3283.10" y="2379.81" type="priority"/>
    <node id="1515803083" x="3334.59" y="2380.80" type="priority"/>
    <node id="1515803088" x="3389.35" y="2381.92" type="priority"/>
    <node id="1515803133" x="3331.91" y="2439.79" type="priority"/>
    <node id="1515803136" x="3532.90" y="2446.44" type="priority"/>
    <node id="1515803145" x="3631.46" y="2507.65" type="priority"/>
    <node id="1515803150" x="3322.56" y="2517.04" type="priority" fringe="inner">
        <param key="buffer_stop" value="true"/>
    </node>
    <node id="1515803191" x="3322.70" y="2523.78" type="priority"/>
    <node id="1515803197" x="3520.36" y="2543.57" type="priority"/>
    <node id="1515803199" x="3605.81" y="2571.86" type="priority"/>
    <node id="1515803280" x="3590.16" y="2667.20" type="right_before_left"/>
    <node id="1515803400" x="3504.02" y="2857.95" type="priority"/>
    <node id="1515803483" x="3575.17" y="2889.51" type="priority"/>
    <node id="1515821899" x="3401.37" y="2678.08" type="dead_end" fringe="inner">
        <param key="buffer_stop" value="true"/>
    </node>
    <node id="1515821900" x="3406.43" y="2679.67" type="dead_end" fringe="inner">
        <param key="buffer_stop" value="true"/>
    </node>
    <node id="1515821901" x="3412.22" y="2681.54" type="dead_end" fringe="inner">
        <param key="buffer_stop" value="true"/>
    </node>
    <node id="1515821903" x="3588.08" y="2810.00" type="priority"/>
    <node id="1515821904" x="4160.44" y="2814.03" type="priority"/>
    <node id="1515821905" x="3660.81" y="2816.81" type="right_before_left"/>
    <node id="1515821911" x="3862.28" y="2861.49" type="priority"/>
    <node id="1515821916" x="3379.84" y="2876.19" type="priority"/>
    <node id="1515821917" x="3847.25" y="2877.38" type="priority"/>
    <node id="1515821920" x="3836.94" y="2888.41" type="priority"/>
    <node id="1515821921" x="3864.07" y="2891.83" type="priority"/>
    <node id="1515821923" x="3382.20" y="2901.54" type="priority"/>
    <node id="1515821937" x="3884.59" y="2941.09" type="priority"/>
    <node id="1515821939" x="3779.27" y="2942.39" type="priority"/>
    <node id="1515821949" x="4249.21" y="2958.07" type="priority"/>
    <node id="1515821950" x="3797.20" y="2959.54" type="dead_end"/>
    <node id="1515821954" x="3791.84" y="2972.53" type="dead_end"/>
    <node id="1515822000" x="3668.21" y="3090.95" type="priority"/>
    <node id="1515822025" x="3633.79" y="3154.05" type="priority"/>
    <node id="1515822029" x="3443.07" y="3187.21" type="dead_end" fringe="inner">
        <param key="buffer_stop" value="true"/>
    </node>
    <node id="1515822032" x="3433.92" y="3192.19" type="priority"/>
    <node id="1515822037" x="3446.69" y="3242.02" type="priority"/>
    <node id="1515822040" x="3826.08" y="3249.01" type="priority"/>
    <node id="1515822042" x="3863.53" y="3252.73" type="priority"/>
    <node id="1515822043" x="3456.14" y="3253.18" type="priority"/>
    <node id="1515822051" x="3919.20" y="3311.87" type="priority"/>
    <node id="1515822055" x="3442.25" y="3351.54" type="priority"/>
    <node id="1515822062" x="3420.86" y="3386.17" type="priority"/>
    <node id="1515822063" x="3407.37" y="3401.04" type="priority"/>
    <node id="1515822071" x="3376.82" y="3442.78" type="priority"/>