<?xml version="1.0" encoding="UTF-8"?>

<!-- generated on 2025-04-04 16:23:36 by Eclipse SUMO netconvert Version 1.19.0
<configuration xmlns:xsi="http://www.w3.org/2001/XMLSchema-instance" xsi:noNamespaceSchemaLocation="http://sumo.dlr.de/xsd/netconvertConfiguration.xsd">

    <input>
        <sumo-net-file value="nangis/nangis.net.xml"/>
    </input>

    <output>
        <output-file value="nangis/nangis.rou.xml"/>
    </output>

    <processing>
        <geometry.min-radius.fix.railways value="false"/>
        <geometry.max-grade.fix value="false"/>
        <offset.disable-normalization value="true"/>
        <lefthand value="0"/>
    </processing>

    <tls_building>
        <tls.ignore-internal-junction-jam value="1"/>
    </tls_building>

    <junctions>
        <no-turnarounds value="true"/>
        <junctions.corner-detail value="5"/>
        <junctions.limit-turn-speed value="5.50"/>
        <rectangular-lane-cut value="0"/>
    </junctions>

    <pedestrian>
        <walkingareas value="0"/>
    </pedestrian>

</configuration>
-->

<net version="1.16" junctionCornerDetail="5" limitTurnSpeed="5.50" tlsIgnoreInternalJunctionJam="1" xmlns:xsi="http://www.w3.org/2001/XMLSchema-instance" xsi:noNamespaceSchemaLocation="http://sumo.dlr.de/xsd/net_file.xsd">

    <location netOffset="-497095.76,-5375769.42" convBoundary="0.00,0.00,7239.82,7677.66" origBoundary="2.505475,48.424568,3.301254,48.649231" projParameter="+proj=utm +zone=31 +ellps=WGS84 +datum=WGS84 +units=m +no_defs"/>

    <type id="highway.cycleway" priority="1" numLanes="1" speed="5.56" allow="bicycle" oneway="0" width="2.00"/>
    <type id="highway.footway" priority="1" numLanes="1" speed="2.78" allow="pedestrian" oneway="1" width="2.00"/>
    <type id="highway.living_street" priority="2" numLanes="1" speed="2.78" disallow="tram rail_urban rail rail_electric rail_fast ship" oneway="0"/>
    <type id="highway.path" priority="1" numLanes="1" speed="5.56" allow="pedestrian bicycle" oneway="0" width="2.00"/>
    <type id="highway.pedestrian" priority="1" numLanes="1" speed="2.78" allow="pedestrian" oneway="1" width="2.00"/>
    <type id="highway.primary" priority="12" numLanes="2" speed="27.78" disallow="tram rail_urban rail rail_electric rail_fast ship" oneway="0"/>
    <type id="highway.residential" priority="3" numLanes="1" speed="13.89" disallow="tram rail_urban rail rail_electric rail_fast ship" oneway="0"/>
    <type id="highway.secondary" priority="11" numLanes="1" speed="27.78" disallow="tram rail_urban rail rail_electric rail_fast ship" oneway="0"/>
    <type id="highway.secondary_link" priority="6" numLanes="1" speed="22.22" disallow="tram rail_urban rail rail_electric rail_fast ship" oneway="0"/>
    <type id="highway.service" priority="1" numLanes="1" speed="5.56" allow="pedestrian delivery bicycle" oneway="0"/>
    <type id="highway.steps" priority="1" numLanes="1" speed="1.39" allow="pedestrian" oneway="1" width="2.00"/>
    <type id="highway.tertiary" priority="10" numLanes="1" speed="22.22" disallow="tram rail_urban rail rail_electric rail_fast ship" oneway="0"/>
    <type id="highway.tertiary_link" priority="5" numLanes="1" speed="22.22" disallow="tram rail_urban rail rail_electric rail_fast ship" oneway="0"/>
    <type id="highway.track" priority="1" numLanes="1" speed="5.56" allow="pedestrian motorcycle moped bicycle" oneway="0"/>
    <type id="highway.unclassified" priority="4" numLanes="1" speed="13.89" disallow="tram rail_urban rail rail_electric rail_fast ship" oneway="0"/>
    <type id="railway.rail" priority="20" numLanes="1" speed="44.44" allow="rail" oneway="1"/>

    <edge id=":10092651989_0" function="internal">
        <lane id=":10092651989_0_0" index="0" disallow="tram rail_urban rail rail_electric rail_fast ship" speed="27.78" length="8.86" shape="4901.81,2677.31 4903.75,2679.27 4904.85,2680.82 4905.72,2682.54 4907.01,2685.02"/>
        <lane id=":10092651989_0_1" index="1" disallow="tram rail_urban rail rail_electric rail_fast ship" speed="27.78" length="8.86" shape="4899.65,2679.67 4901.37,2681.42 4902.32,2682.82 4903.08,2684.37 4904.22,2686.58"/>
    </edge>
    <edge id=":10092651989_2" function="internal">
        <lane id=":10092651989_2_0" index="0" disallow="tram rail_urban rail rail_electric rail_fast ship" speed="15.59" length="7.18" shape="4897.49,2682.03 4898.98,2683.52 4899.81,2684.72 4900.40,2686.08 4901.20,2688.06"/>
        <lane id=":10092651989_2_1" index="1" disallow="tram rail_urban rail rail_electric rail_fast ship" speed="14.05" length="5.81" shape="4895.33,2684.39 4896.52,2685.60 4897.17,2686.59 4897.62,2687.70 4898.26,2689.31"/>
    </edge>
    <edge id=":10092651998_0" function="internal">
        <lane id=":10092651998_0_0" index="0" allow="pedestrian delivery bicycle" speed="6.12" length="7.81" shape="4344.78,2532.05 4345.02,2530.62 4346.09,2529.50 4347.99,2528.69 4350.70,2528.19"/>
    </edge>
    <edge id=":10092651998_1" function="internal">
        <lane id=":10092651998_1_0" index="0" allow="pedestrian delivery bicycle" speed="3.65" length="4.67" shape="4344.78,2532.05 4345.45,2530.78 4346.20,2530.30 4347.04,2530.61 4347.96,2531.72"/>
    </edge>
    <edge id=":10092651998_2" function="internal">
        <lane id=":10092651998_2_0" index="0" disallow="tram rail_urban rail rail_electric rail_fast ship" speed="13.89" length="9.44" shape="4341.33,2529.33 4350.70,2528.19"/>
    </edge>
    <edge id=":10092651998_3" function="internal">
        <lane id=":10092651998_3_0" index="0" allow="pedestrian delivery bicycle" speed="6.05" length="7.84" shape="4341.33,2529.33 4344.11,2529.17 4346.14,2529.51 4347.42,2530.36 4347.96,2531.72"/>
    </edge>
    <edge id=":10092652003_0" function="internal">
        <lane id=":10092652003_0_0" index="0" allow="pedestrian delivery bicycle" speed="6.20" length="7.83" shape="4431.23,2522.48 4431.53,2521.05 4432.62,2519.94 4434.52,2519.13 4437.22,2518.63"/>
    </edge>
    <edge id=":10092652003_1" function="internal">
        <lane id=":10092652003_1_0" index="0" allow="pedestrian delivery bicycle" speed="3.65" length="4.67" shape="4431.23,2522.48 4431.95,2521.23 4432.72,2520.77 4433.55,2521.12 4434.42,2522.26"/>
    </edge>
    <edge id=":10092652003_2" function="internal">
        <lane id=":10092652003_2_0" index="0" disallow="tram rail_urban rail rail_electric rail_fast ship" speed="13.89" length="9.41" shape="4427.87,2519.66 4437.22,2518.63"/>
    </edge>
    <edge id=":10092652003_3" function="internal">
        <lane id=":10092652003_3_0" index="0" allow="pedestrian delivery bicycle" speed="6.04" length="7.88" shape="4427.87,2519.66 4430.65,2519.56 4432.67,2519.96 4433.93,2520.86 4434.42,2522.26"/>
    </edge>
    <edge id=":10796991359_0" function="internal">
        <lane id=":10796991359_0_0" index="0" allow="bicycle" speed="5.56" length="6.26" width="2.00" shape="4280.30,2243.68 4278.92,2242.43 4277.91,2241.60 4277.07,2240.66 4276.15,2239.08"/>
    </edge>
    <edge id=":10796991359_1" function="internal">
        <lane id=":10796991359_1_0" index="0" allow="bicycle" speed="4.80" length="5.08" width="2.00" shape="4280.30,2243.68 4279.20,2242.38 4278.68,2241.21 4278.74,2240.19 4279.37,2239.31"/>
    </edge>
    <edge id=":10796991359_2" function="internal">
        <lane id=":10796991359_2_0" index="0" allow="bicycle" speed="3.03" length="2.97" width="2.00" shape="4280.30,2243.68 4280.11,2242.78 4280.29,2242.24 4280.83,2242.06 4281.73,2242.23"/>
    </edge>
    <edge id=":10796991359_3" function="internal">
        <lane id=":10796991359_3_0" index="0" allow="bicycle" speed="3.53" length="2.78" width="2.00" shape="4277.65,2237.59 4278.00,2238.33 4278.39,2239.04 4278.84,2239.45 4279.37,2239.31"/>
    </edge>
    <edge id=":10796991359_4" function="internal">
        <lane id=":10796991359_4_0" index="0" allow="bicycle" speed="5.56" length="6.38" width="2.00" shape="4277.65,2237.59 4278.47,2239.30 4279.16,2240.45 4280.11,2241.33 4281.73,2242.23"/>
    </edge>
    <edge id=":10796991359_5" function="internal">
        <lane id=":10796991359_5_0" index="0" allow="bicycle" speed="2.94" length="3.08" width="2.00" shape="4277.65,2237.59 4277.83,2238.53 4277.64,2239.09 4277.08,2239.27 4276.15,2239.08"/>
    </edge>
    <edge id=":10796991359_6" function="internal">
        <lane id=":10796991359_6_0" index="0" allow="bicycle" speed="5.37" length="4.14" width="2.00" shape="4275.86,2242.94 4276.41,2242.11 4276.65,2241.19 4276.56,2240.18 4276.15,2239.08"/>
    </edge>
    <edge id=":10796991359_7" function="internal">
        <lane id=":10796991359_7_0" index="0" disallow="tram rail_urban rail rail_electric rail_fast ship" speed="8.33" length="4.98" shape="4276.31,2243.35 4277.29,2242.24 4277.96,2241.48 4278.67,2240.76 4279.76,2239.77"/>
    </edge>
    <edge id=":10796991359_8" function="internal">
        <lane id=":10796991359_8_0" index="0" allow="bicycle" speed="5.87" length="5.61" width="2.00" shape="4276.76,2243.75 4277.99,2242.63 4279.23,2242.00 4280.48,2241.87 4281.73,2242.23"/>
    </edge>
    <edge id=":10797055459_0" function="internal">
        <lane id=":10797055459_0_0" index="0" disallow="tram rail_urban rail rail_electric rail_fast ship" speed="19.44" length="7.86" shape="4985.71,2749.61 4978.95,2745.59"/>
    </edge>
    <edge id=":10797055459_1" function="internal">
        <lane id=":10797055459_1_0" index="0" disallow="tram rail_urban rail rail_electric rail_fast ship" speed="19.44" length="11.31" shape="4983.96,2736.72 4985.73,2739.29 4985.72,2742.02 4985.70,2744.64 4987.42,2746.90"/>
    </edge>
    <edge id=":10797055460_0" function="internal">
        <lane id=":10797055460_0_0" index="0" disallow="tram rail_urban rail rail_electric rail_fast ship" speed="19.44" length="0.29" shape="4828.22,2693.41 4827.92,2693.37"/>
    </edge>
    <edge id=":10797055460_1" function="internal">
        <lane id=":10797055460_1_0" index="0" disallow="tram rail_urban rail rail_electric rail_fast ship" speed="19.44" length="0.30" shape="4828.21,2690.19 4828.51,2690.21"/>
    </edge>
    <edge id=":10797055461_0" function="internal">
        <lane id=":10797055461_0_0" index="0" disallow="tram rail_urban rail rail_electric rail_fast ship" speed="5.90" length="9.08" shape="4881.83,2695.09 4884.63,2695.00 4886.43,2694.13 4887.22,2692.47 4887.01,2690.03"/>
    </edge>
    <edge id=":10797055461_1" function="internal">
        <lane id=":10797055461_1_0" index="0" disallow="tram rail_urban rail rail_electric rail_fast ship" speed="19.44" length="10.97" shape="4881.83,2695.09 4884.95,2695.34 4887.31,2695.59 4889.61,2696.07 4892.58,2697.03"/>
    </edge>
    <edge id=":10797055461_2" function="internal">
        <lane id=":10797055461_2_0" index="0" disallow="tram rail_urban rail rail_electric rail_fast ship" speed="27.78" length="8.24" shape="4887.30,2698.20 4887.50,2695.76 4887.62,2694.07 4887.51,2692.41 4887.01,2690.03"/>
        <lane id=":10797055461_2_1" index="1" disallow="tram rail_urban rail rail_electric rail_fast ship" speed="27.78" length="8.24" shape="4890.50,2698.39 4890.72,2695.94 4890.89,2694.25 4890.83,2692.59 4890.36,2690.21"/>
    </edge>
    <edge id=":10797055461_4" function="internal">
        <lane id=":10797055461_4_0" index="0" disallow="tram rail_urban rail rail_electric rail_fast ship" speed="3.87" length="3.07" shape="4890.50,2698.39 4890.67,2697.52 4891.08,2697.01 4891.71,2696.85 4892.58,2697.03"/>
    </edge>
    <edge id=":10797055463_0" function="internal">
        <lane id=":10797055463_0_0" index="0" disallow="tram rail_urban rail rail_electric rail_fast ship" speed="19.44" length="3.16" shape="4920.46,2707.49 4921.33,2707.83 4921.93,2708.07 4922.51,2708.34 4923.35,2708.76"/>
    </edge>
    <edge id=":10797055463_1" function="internal">
        <lane id=":10797055463_1_0" index="0" disallow="tram rail_urban rail rail_electric rail_fast ship" speed="5.05" length="3.18" shape="4923.20,2702.49 4923.89,2702.27 4924.67,2702.38 4925.47,2702.68 4926.20,2703.03"/>
        <lane id=":10797055463_1_1" index="1" disallow="tram rail_urban rail rail_electric rail_fast ship" speed="3.40" length="1.08" shape="4925.08,2705.09 4924.77,2705.35 4924.61,2705.57 4924.61,2705.75 4924.77,2705.89"/>
    </edge>
    <edge id=":10797055464_0" function="internal">
        <lane id=":10797055464_0_0" index="0" disallow="tram rail_urban rail rail_electric rail_fast ship" speed="7.83" length="11.73" shape="4903.20,2694.43 4903.07,2696.80 4901.79,2698.91 4899.38,2700.76 4895.82,2702.37"/>
        <lane id=":10797055464_0_1" index="1" disallow="tram rail_urban rail rail_electric rail_fast ship" speed="7.17" length="11.73" shape="4898.54,2689.98 4899.42,2693.18 4899.07,2695.80 4897.52,2697.86 4894.75,2699.35"/>
    </edge>
    <edge id=":10797055464_2" function="internal">
        <lane id=":10797055464_2_0" index="0" disallow="tram rail_urban rail rail_electric rail_fast ship" speed="19.44" length="17.33" shape="4892.77,2697.09 4909.00,2703.14"/>
    </edge>
    <edge id=":10797055464_3" function="internal">
        <lane id=":10797055464_3_0" index="0" disallow="tram rail_urban rail rail_electric rail_fast ship" speed="3.87" length="2.37" shape="4892.77,2697.09 4894.44,2697.79 4894.89,2698.11"/>
    </edge>
    <edge id=":10797055464_4" function="internal">
        <lane id=":10797055464_4_0" index="0" disallow="tram rail_urban rail rail_electric rail_fast ship" speed="3.87" length="1.85" shape="4894.89,2698.11 4895.32,2698.40 4895.43,2698.92 4894.75,2699.35"/>
    </edge>
    <edge id=":10839349120_0" function="internal">
        <lane id=":10839349120_0_0" index="0" allow="pedestrian delivery bicycle" speed="6.05" length="6.18" shape="4144.84,1725.31 4143.57,1725.56 4142.50,1726.35 4141.63,1727.67 4140.96,1729.52"/>
    </edge>
    <edge id=":10839349120_1" function="internal">
        <lane id=":10839349120_1_0" index="0" disallow="tram rail_urban rail rail_electric rail_fast ship" speed="13.89" length="9.61" shape="4144.84,1725.31 4135.23,1725.21"/>
    </edge>
    <edge id=":10839349120_2" function="internal">
        <lane id=":10839349120_2_0" index="0" disallow="tram rail_urban rail rail_electric rail_fast ship" speed="13.89" length="9.61" shape="4135.27,1722.01 4144.87,1722.11"/>
    </edge>
    <edge id=":10839349120_3" function="internal">
        <lane id=":10839349120_3_0" index="0" allow="pedestrian delivery bicycle" speed="6.70" length="3.55" shape="4135.27,1722.01 4138.51,1722.51 4138.73,1722.67"/>
    </edge>
    <edge id=":10839349120_7" function="internal">
        <lane id=":10839349120_7_0" index="0" allow="pedestrian delivery bicycle" speed="6.70" length="7.96" shape="4138.73,1722.67 4140.54,1723.93 4141.36,1726.27 4140.96,1729.52"/>
    </edge>
    <edge id=":10839349120_4" function="internal">
        <lane id=":10839349120_4_0" index="0" allow="pedestrian delivery bicycle" speed="4.81" length="5.33" shape="4137.87,1728.69 4138.05,1727.18 4137.67,1726.10 4136.73,1725.44 4135.23,1725.21"/>
    </edge>
    <edge id=":10839349120_5" function="internal">
        <lane id=":10839349120_5_0" index="0" allow="pedestrian delivery bicycle" speed="7.66" length="10.42" shape="4137.87,1728.69 4138.98,1725.79 4140.51,1723.73 4142.48,1722.50 4144.87,1722.11"/>
    </edge>
    <edge id=":10839349120_6" function="internal">
        <lane id=":10839349120_6_0" index="0" allow="pedestrian delivery bicycle" speed="3.65" length="4.67" shape="4137.87,1728.69 4138.96,1727.74 4139.83,1727.56 4140.50,1728.16 4140.96,1729.52"/>
    </edge>
    <edge id=":10839349125_0" function="internal">
        <lane id=":10839349125_0_0" index="0" allow="pedestrian delivery bicycle" speed="5.05" length="5.00" shape="4101.62,1727.97 4101.43,1726.61 4100.85,1725.64 4099.88,1725.05 4098.53,1724.85"/>
    </edge>
    <edge id=":10839349125_1" function="internal">
        <lane id=":10839349125_1_0" index="0" allow="pedestrian delivery bicycle" speed="6.84" length="10.18" shape="4101.62,1727.97 4102.02,1725.21 4103.21,1723.26 4105.19,1722.09 4107.97,1721.73"/>
    </edge>
    <edge id=":10839349125_2" function="internal">
        <lane id=":10839349125_2_0" index="0" allow="pedestrian delivery bicycle" speed="4.12" length="5.30" shape="4101.62,1727.97 4102.49,1726.58 4103.38,1726.10 4104.30,1726.53 4105.25,1727.86"/>
    </edge>
    <edge id=":10839349125_3" function="internal">
        <lane id=":10839349125_3_0" index="0" allow="pedestrian delivery bicycle" speed="4.51" length="5.48" shape="4107.94,1724.93 4106.05,1725.09 4104.97,1725.64 4104.70,1726.56 4105.25,1727.86"/>
    </edge>
    <edge id=":10839349125_4" function="internal">
        <lane id=":10839349125_4_0" index="0" disallow="tram rail_urban rail rail_electric rail_fast ship" speed="13.89" length="9.41" shape="4107.94,1724.93 4098.53,1724.85"/>
    </edge>
    <edge id=":10839349125_5" function="internal">
        <lane id=":10839349125_5_0" index="0" disallow="tram rail_urban rail rail_electric rail_fast ship" speed="13.89" length="9.42" shape="4098.55,1721.65 4107.97,1721.73"/>
    </edge>
    <edge id=":10839349125_6" function="internal">
        <lane id=":10839349125_6_0" index="0" allow="pedestrian delivery bicycle" speed="8.64" length="2.01" shape="4098.55,1721.65 4100.00,1722.05 4100.41,1722.34"/>
    </edge>
    <edge id=":10839349125_7" function="internal">
        <lane id=":10839349125_7_0" index="0" allow="pedestrian delivery bicycle" speed="8.64" length="7.40" shape="4100.41,1722.34 4101.60,1723.21 4103.35,1725.15 4105.25,1727.86"/>
    </edge>
    <edge id=":10839349252_0" function="internal">
        <lane id=":10839349252_0_0" index="0" disallow="tram rail_urban rail rail_electric rail_fast ship" speed="8.33" length="0.30" shape="3430.38,2384.03 3430.08,2384.03"/>
    </edge>
    <edge id=":10839349252_1" function="internal">
        <lane id=":10839349252_1_0" index="0" disallow="tram rail_urban rail rail_electric rail_fast ship" speed="11.11" length="0.30" shape="3430.12,2380.83 3430.42,2380.83"/>
    </edge>
    <edge id=":10839349259_0" function="internal">
        <lane id=":10839349259_0_0" index="0" allow="pedestrian delivery bicycle" speed="5.56" length="18.83" shape="3255.92,2342.09 3255.21,2346.38 3253.91,2351.29 3252.20,2356.06 3250.26,2359.94"/>
    </edge>
    <edge id=":10839349259_1" function="internal">
        <lane id=":10839349259_1_0" index="0" allow="pedestrian delivery bicycle" speed="5.56" length="20.07" shape="3255.92,2342.09 3254.71,2349.01 3252.59,2353.73 3249.57,2356.25 3245.65,2356.57"/>
    </edge>
    <edge id=":10839349279_0" function="internal">
        <lane id=":10839349279_0_0" index="0" allow="pedestrian delivery bicycle" speed="5.14" length="4.90" shape="3353.80,1996.93 3352.48,1996.76 3351.39,1997.04 3350.54,1997.77 3349.91,1998.93"/>
    </edge>
    <edge id=":10839349279_1" function="internal">
        <lane id=":10839349279_1_0" index="0" allow="pedestrian delivery bicycle" speed="7.10" length="9.56" shape="3353.80,1996.93 3351.39,1995.92 3349.75,1994.40 3348.88,1992.39 3348.77,1989.87"/>
    </edge>
    <edge id=":10839349279_2" function="internal">
        <lane id=":10839349279_2_0" index="0" allow="pedestrian delivery bicycle" speed="3.65" length="4.67" shape="3353.80,1996.93 3352.85,1995.84 3352.68,1994.97 3353.27,1994.30 3354.64,1993.84"/>
    </edge>
    <edge id=":10839349279_3" function="internal">
        <lane id=":10839349279_3_0" index="0" allow="pedestrian delivery bicycle" speed="5.33" length="5.00" shape="3351.95,1990.19 3352.01,1991.49 3352.48,1992.53 3353.36,1993.31 3354.64,1993.84"/>
    </edge>
    <edge id=":10839349279_4" function="internal">
        <lane id=":10839349279_4_0" index="0" disallow="tram rail_urban rail rail_electric rail_fast ship" speed="13.89" length="9.02" shape="3351.95,1990.19 3351.66,1992.85 3351.34,1994.66 3350.82,1996.42 3349.91,1998.93"/>
    </edge>
    <edge id=":10839349279_5" function="internal">
        <lane id=":10839349279_5_0" index="0" disallow="tram rail_urban rail rail_electric rail_fast ship" speed="13.89" length="8.21" shape="3346.91,1997.83 3347.74,1995.54 3348.21,1993.94 3348.50,1992.29 3348.77,1989.87"/>
    </edge>
    <edge id=":10839349279_6" function="internal">
        <lane id=":10839349279_6_0" index="0" allow="pedestrian delivery bicycle" speed="6.94" length="3.14" shape="3346.91,1997.83 3348.15,1995.50 3348.54,1995.18"/>
    </edge>
    <edge id=":10839349279_7" function="internal">
        <lane id=":10839349279_7_0" index="0" allow="pedestrian delivery bicycle" speed="6.94" length="6.60" shape="3348.54,1995.18 3349.86,1994.06 3352.02,1993.51 3354.64,1993.84"/>
    </edge>
    <edge id=":10839349305_0" function="internal">
        <lane id=":10839349305_0_0" index="0" disallow="tram rail_urban rail rail_electric rail_fast ship" speed="13.89" length="5.06" shape="3474.42,2129.31 3474.33,2134.37"/>
    </edge>
    <edge id=":10839349305_1" function="internal">
        <lane id=":10839349305_1_0" index="0" disallow="tram rail_urban rail rail_electric rail_fast ship" speed="13.89" length="5.06" shape="3471.13,2134.32 3471.22,2129.26"/>
    </edge>
    <edge id=":11286127411_0" function="internal">
        <lane id=":11286127411_0_0" index="0" disallow="tram rail_urban rail rail_electric rail_fast ship" speed="5.82" length="9.13" shape="4888.00,2226.65 4885.43,2225.93 4883.57,2226.34 4882.44,2227.86 4882.03,2230.50"/>
    </edge>
    <edge id=":11286127411_1" function="internal">
        <lane id=":11286127411_1_0" index="0" disallow="tram rail_urban rail rail_electric rail_fast ship" speed="22.22" length="14.95" shape="4888.00,2226.65 4874.22,2220.86"/>
    </edge>
    <edge id=":11286127411_2" function="internal">
        <lane id=":11286127411_2_0" index="0" disallow="tram rail_urban rail rail_electric rail_fast ship" speed="3.65" length="1.44" shape="4888.00,2226.65 4887.22,2225.44"/>
    </edge>
    <edge id=":11286127411_9" function="internal">
        <lane id=":11286127411_9_0" index="0" disallow="tram rail_urban rail rail_electric rail_fast ship" speed="3.65" length="3.23" shape="4887.22,2225.44 4887.17,2224.54 4887.86,2223.97 4889.27,2223.71"/>
    </edge>
    <edge id=":11286127411_3" function="internal">
        <lane id=":11286127411_3_0" index="0" disallow="tram rail_urban rail rail_electric rail_fast ship" speed="22.22" length="15.04" shape="4875.40,2217.89 4889.27,2223.71"/>
    </edge>
    <edge id=":11286127411_4" function="internal">
        <lane id=":11286127411_4_0" index="0" disallow="tram rail_urban rail rail_electric rail_fast ship" speed="9.64" length="3.74" shape="4875.40,2217.89 4878.36,2219.70 4878.53,2219.91"/>
    </edge>
    <edge id=":11286127411_5" function="internal">
        <lane id=":11286127411_5_0" index="0" disallow="tram rail_urban rail rail_electric rail_fast ship" speed="3.65" length="1.44" shape="4875.40,2217.89 4876.22,2219.08"/>
    </edge>
    <edge id=":11286127411_10" function="internal">
        <lane id=":11286127411_10_0" index="0" disallow="tram rail_urban rail rail_electric rail_fast ship" speed="9.64" length="11.46" shape="4878.53,2219.91 4880.45,2222.40 4881.68,2226.00 4882.03,2230.50"/>
    </edge>
    <edge id=":11286127411_11" function="internal">
        <lane id=":11286127411_11_0" index="0" disallow="tram rail_urban rail rail_electric rail_fast ship" speed="3.65" length="3.23" shape="4876.22,2219.08 4876.30,2219.97 4875.63,2220.57 4874.22,2220.86"/>
    </edge>
    <edge id=":11286127411_6" function="internal">
        <lane id=":11286127411_6_0" index="0" disallow="tram rail_urban rail rail_electric rail_fast ship" speed="8.39" length="11.33" shape="4878.83,2230.45 4878.59,2226.96 4877.74,2224.21 4876.28,2222.17 4874.22,2220.86"/>
    </edge>
    <edge id=":11286127411_7" function="internal">
        <lane id=":11286127411_7_0" index="0" disallow="tram rail_urban rail rail_electric rail_fast ship" speed="7.48" length="15.98" shape="4878.83,2230.45 4879.55,2225.83 4881.53,2223.17 4884.77,2222.46 4889.27,2223.71"/>
    </edge>
    <edge id=":11286127411_8" function="internal">
        <lane id=":11286127411_8_0" index="0" disallow="tram rail_urban rail rail_electric rail_fast ship" speed="3.65" length="4.67" shape="4878.83,2230.45 4879.65,2229.26 4880.46,2228.87 4881.25,2229.29 4882.03,2230.50"/>
    </edge>
    <edge id=":11286178328_0" function="internal">
        <lane id=":11286178328_0_0" index="0" allow="pedestrian delivery bicycle" speed="5.56" length="12.46" shape="2975.50,3790.83 2974.57,3778.40"/>
    </edge>
    <edge id=":11286178328_1" function="internal">
        <lane id=":11286178328_1_0" index="0" allow="pedestrian delivery bicycle" speed="5.56" length="16.85" shape="2975.50,3790.83 2975.68,3785.39 2977.25,3782.85 2980.21,3783.22 2984.55,3786.50"/>
    </edge>
    <edge id=":11286178328_2" function="internal">
        <lane id=":11286178328_2_0" index="0" allow="pedestrian delivery bicycle" speed="3.65" length="4.67" shape="2975.50,3790.83 2976.21,3789.57 2976.98,3789.11 2977.81,3789.45 2978.69,3790.59"/>
    </edge>
    <edge id=":11286178328_3" function="internal">
        <lane id=":11286178328_3_0" index="0" allow="pedestrian delivery bicycle" speed="4.69" length="6.83" shape="2982.36,3788.83 2980.60,3787.50 2979.40,3787.35 2978.76,3788.38 2978.69,3790.59"/>
    </edge>
    <edge id=":11286178328_4" function="internal">
        <lane id=":11286178328_4_0" index="0" allow="pedestrian delivery bicycle" speed="5.56" length="13.40" shape="2982.36,3788.83 2979.66,3786.46 2977.24,3784.20 2975.43,3781.65 2974.57,3778.40"/>
    </edge>
    <edge id=":11286178328_5" function="internal">
        <lane id=":11286178328_5_0" index="0" allow="pedestrian delivery bicycle" speed="3.65" length="4.67" shape="2982.36,3788.83 2982.04,3787.43 2982.29,3786.57 2983.13,3786.26 2984.55,3786.50"/>
    </edge>
    <edge id=":11286178328_6" function="internal">
        <lane id=":11286178328_6_0" index="0" allow="pedestrian delivery bicycle" speed="5.56" length="11.20" shape="2977.76,3778.16 2978.47,3781.09 2979.93,3782.92 2982.01,3784.45 2984.55,3786.50"/>
    </edge>
    <edge id=":11286178328_7" function="internal">
        <lane id=":11286178328_7_0" index="0" allow="pedestrian delivery bicycle" speed="5.56" length="12.46" shape="2977.76,3778.16 2978.69,3790.59"/>
    </edge>
    <edge id=":11286178328_8" function="internal">
        <lane id=":11286178328_8_0" index="0" allow="pedestrian delivery bicycle" speed="3.65" length="4.67" shape="2977.76,3778.16 2977.05,3779.42 2976.28,3779.88 2975.46,3779.54 2974.57,3778.40"/>
    </edge>
    <edge id=":11286178329_0" function="internal">
        <lane id=":11286178329_0_0" index="0" allow="pedestrian delivery bicycle" speed="5.56" length="11.01" shape="2973.60,3765.39 2973.61,3762.15 2973.72,3759.63 2973.21,3757.41 2971.35,3755.09"/>
    </edge>
    <edge id=":11286178329_1" function="internal">
        <lane id=":11286178329_1_0" index="0" allow="pedestrian delivery bicycle" speed="5.56" length="16.60" shape="2973.60,3765.39 2973.78,3760.05 2975.34,3757.54 2978.29,3757.85 2982.61,3760.99"/>
    </edge>
    <edge id=":11286178329_2" function="internal">
        <lane id=":11286178329_2_0" index="0" allow="pedestrian delivery bicycle" speed="3.65" length="4.67" shape="2973.60,3765.39 2974.30,3764.13 2975.07,3763.67 2975.90,3764.01 2976.79,3765.15"/>
    </edge>
    <edge id=":11286178329_3" function="internal">
        <lane id=":11286178329_3_0" index="0" allow="pedestrian delivery bicycle" speed="4.68" length="6.76" shape="2980.46,3763.36 2978.70,3762.08 2977.50,3761.95 2976.86,3762.98 2976.79,3765.15"/>
    </edge>
    <edge id=":11286178329_4" function="internal">
        <lane id=":11286178329_4_0" index="0" allow="pedestrian delivery bicycle" speed="5.56" length="12.30" shape="2980.46,3763.36 2971.35,3755.09"/>
    </edge>
    <edge id=":11286178329_5" function="internal">
        <lane id=":11286178329_5_0" index="0" allow="pedestrian delivery bicycle" speed="3.65" length="4.67" shape="2980.46,3763.36 2980.11,3761.96 2980.35,3761.10 2981.18,3760.78 2982.61,3760.99"/>
    </edge>
    <edge id=":11286178329_6" function="internal">
        <lane id=":11286178329_6_0" index="0" allow="pedestrian delivery bicycle" speed="5.56" length="12.31" shape="2973.50,3752.72 2982.61,3760.99"/>
    </edge>
    <edge id=":11286178329_7" function="internal">
        <lane id=":11286178329_7_0" index="0" allow="pedestrian delivery bicycle" speed="5.56" length="13.25" shape="2973.50,3752.72 2975.52,3755.38 2976.39,3758.32 2976.64,3761.58 2976.79,3765.15"/>
    </edge>
    <edge id=":11286178329_8" function="internal">
        <lane id=":11286178329_8_0" index="0" allow="pedestrian delivery bicycle" speed="3.65" length="4.67" shape="2973.50,3752.72 2973.85,3754.12 2973.61,3754.98 2972.77,3755.30 2971.35,3755.09"/>
    </edge>
    <edge id=":11286178331_0" function="internal">
        <lane id=":11286178331_0_0" index="0" allow="pedestrian delivery bicycle" speed="3.65" length="4.67" shape="2997.60,3846.72 2997.97,3848.12 2997.74,3848.98 2996.91,3849.31 2995.48,3849.12"/>
    </edge>
    <edge id=":11286178340_0" function="internal">
        <lane id=":11286178340_0_0" index="0" allow="pedestrian delivery bicycle" speed="4.81" length="5.34" shape="2956.54,3741.26 2955.31,3740.37 2954.17,3740.18 2953.15,3740.69 2952.22,3741.90"/>
    </edge>
    <edge id=":11286178340_1" function="internal">
        <lane id=":11286178340_1_0" index="0" allow="pedestrian delivery bicycle" speed="7.69" length="10.43" shape="2956.54,3741.26 2954.53,3738.89 2953.45,3736.54 2953.31,3734.23 2954.11,3731.94"/>
    </edge>
    <edge id=":11286178340_2" function="internal">
        <lane id=":11286178340_2_0" index="0" allow="pedestrian delivery bicycle" speed="3.65" length="4.67" shape="2956.54,3741.26 2956.23,3739.85 2956.50,3739.00 2957.34,3738.70 2958.76,3738.96"/>
    </edge>
    <edge id=":11286178340_3" function="internal">