<edges xmlns:xsi="http://www.w3.org/2001/XMLSchema-instance" version="1.16" xsi:noNamespaceSchemaLocation="http://sumo.dlr.de/xsd/edges_file.xsd">
    <location netOffset="-501380.46,-5404724.96" convBoundary="0.00,0.00,7462.73,8042.35" origBoundary="2.830881,48.795483,3.150761,48.900875" projParameter="+proj=utm +zone=31 +ellps=WGS84 +datum=WGS84 +units=m +no_defs" />

    <edge id="-1002435620" from="1478257749" to="1478257773" priority="4" type="highway.unclassified" numLanes="1" speed="13.89" shape="3442.35,885.09 3454.32,870.48 3462.80,863.38 3472.83,857.35 3483.59,850.65 3506.99,831.19 3536.73,806.83 3551.40,797.30 3578.75,784.85 3631.32,765.87 3717.62,747.84 3739.80,742.11 3752.93,738.72 3762.50,734.24" disallow="tram rail_urban rail rail_electric rail_fast ship" />
    <edge id="-1004099259" from="4153936690" to="4153936457" priority="12" type="highway.primary" numLanes="2" speed="27.78" shape="4872.29,2244.43 4882.42,2239.15 4886.56,2233.91" disallow="tram rail_urban rail rail_electric rail_fast ship">
        <param key="ref" value="D 222" />
    </edge>
    <edge id="-1004099260" from="3739728269" to="1247130467" priority="3" type="highway.residential" numLanes="1" speed="13.89" shape="5263.66,2875.51 5258.18,2865.91 5253.48,2853.53 5249.94,2840.59 5226.52,2745.23 5222.65,2729.92" disallow="tram rail_urban rail rail_electric rail_fast ship" />
    <edge id="-1064567685" from="9776973061" to="9776973063" priority="3" type="highway.residential" numLanes="1" speed="13.89" shape="5021.64,3019.64 5004.12,3025.11 5013.23,3055.16" disallow="tram rail_urban rail rail_electric rail_fast ship" />
    <edge id="-1064567689" from="473419095" to="473419138" priority="3" type="highway.residential" numLanes="1" speed="13.89" disallow="tram rail_urban rail rail_electric rail_fast ship" />
    <edge id="-1064567692#0" from="9776973082" to="1830045478" priority="3" type="highway.residential" numLanes="1" speed="13.89" shape="5085.85,2485.33 5077.00,2474.92 5073.47,2471.97 5055.34,2482.73" disallow="tram rail_urban rail rail_electric rail_fast ship" />
    <edge id="-1064567692#1" from="9776973081" to="9776973082" priority="3" type="highway.residential" numLanes="1" speed="13.89" disallow="tram rail_urban rail rail_electric rail_fast ship" />
    <edge id="-1064567695" from="9776973089" to="9776973090" priority="4" type="highway.unclassified" numLanes="1" speed="13.89" disallow="tram rail_urban rail rail_electric rail_fast ship" />
    <edge id="-107234406#0" from="4947019305" to="1232869898" priority="4" type="highway.unclassified" numLanes="1" speed="13.89" shape="5695.91,3071.79 5684.61,3085.60 5680.95,3089.82 5678.03,3091.94" disallow="tram rail_urban rail rail_electric rail_fast ship" />
    <edge id="-107234406#1" from="4947019300" to="4947019305" priority="4" type="highway.unclassified" numLanes="1" speed="13.89" disallow="tram rail_urban rail rail_electric rail_fast ship" />
    <edge id="-107234406#2" from="1927872492" to="4947019300" priority="4" type="highway.unclassified" numLanes="1" speed="13.89" disallow="tram rail_urban rail rail_electric rail_fast ship" />
    <edge id="-107234409#0" from="1927872589" to="473436654" priority="3" type="highway.residential" numLanes="1" speed="13.89" shape="5850.45,3665.57 5866.72,3712.16 5903.46,3826.43" disallow="tram rail_urban rail rail_electric rail_fast ship" />
    <edge id="-107234409#1" from="473436652" to="1927872589" priority="3" type="highway.residential" numLanes="1" speed="13.89" disallow="tram rail_urban rail rail_electric rail_fast ship" />
    <edge id="-107234409#2" from="1232869816" to="473436652" priority="3" type="highway.residential" numLanes="1" speed="13.89" shape="5794.45,3458.73 5818.94,3573.58 5836.85,3626.59" disallow="tram rail_urban rail rail_electric rail_fast ship" />
    <edge id="-107234423#0" from="473422694" to="473422689" priority="3" type="highway.residential" numLanes="1" speed="13.89" shape="5128.56,2545.07 5122.22,2540.35 5114.49,2536.17 5106.67,2533.31 5100.17,2532.03 5094.94,2531.62 5091.38,2531.91 5084.22,2534.08 5080.05,2534.36" disallow="tram rail_urban rail rail_electric rail_fast ship" />
    <edge id="-107234423#1" from="473422697" to="473422694" priority="3" type="highway.residential" numLanes="1" speed="13.89" shape="5153.52,2581.41 5138.39,2557.31 5134.16,2551.51 5128.56,2545.07" disallow="tram rail_urban rail rail_electric rail_fast ship" />
    <edge id="-107234423#2" from="1247130467" to="473422697" priority="3" type="highway.residential" numLanes="1" speed="13.89" shape="5222.65,2729.92 5214.97,2696.97 5210.56,2679.40 5207.27,2670.66 5204.62,2664.72 5199.41,2655.39 5188.60,2637.95 5173.22,2613.39 5153.52,2581.41" disallow="tram rail_urban rail rail_electric rail_fast ship" />
    <edge id="-107234427#0" from="473436657" to="1236534718" priority="3" type="highway.residential" numLanes="1" speed="13.89" shape="5514.92,3367.27 5567.42,3260.91 5571.73,3249.48 5572.73,3239.12 5573.37,3233.97" disallow="tram rail_urban rail rail_electric rail_fast ship" />
    <edge id="-107234427#1" from="8804316160" to="473436657" priority="3" type="highway.residential" numLanes="1" speed="13.89" disallow="tram rail_urban rail rail_electric rail_fast ship" />
    <edge id="-107234427#2" from="473436659" to="8804316160" priority="3" type="highway.residential" numLanes="1" speed="13.89" disallow="tram rail_urban rail rail_electric rail_fast ship" />
    <edge id="-107234427#3" from="1650432521" to="473436659" priority="3" type="highway.residential" numLanes="1" speed="13.89" disallow="tram rail_urban rail rail_electric rail_fast ship" />
    <edge id="-107234427#4" from="5912741315" to="1650432521" priority="3" type="highway.residential" numLanes="1" speed="13.89" disallow="tram rail_urban rail rail_electric rail_fast ship" />
    <edge id="-107234427#5" from="473436660" to="5912741315" priority="3" type="highway.residential" numLanes="1" speed="13.89" disallow="tram rail_urban rail rail_electric rail_fast ship" />
    <edge id="-107234439#0" from="1232870152" to="473436654" priority="3" type="highway.residential" numLanes="1" speed="13.89" shape="6112.22,3747.23 6096.85,3752.35 5981.93,3795.09 5936.48,3813.54 5903.46,3826.43" disallow="tram rail_urban rail rail_electric rail_fast ship" />
    <edge id="-107234439#1" from="1232870072" to="1232870152" priority="3" type="highway.residential" numLanes="1" speed="13.89" shape="6166.92,3718.89 6131.42,3738.42 6112.22,3747.23" disallow="tram rail_urban rail rail_electric rail_fast ship" />
    <edge id="-107234439#2" from="5768557515" to="1232870072" priority="3" type="highway.residential" numLanes="1" speed="13.89" shape="6300.16,3641.39 6299.02,3648.50 6295.66,3656.79 6290.13,3666.55 6285.21,3672.97 6280.18,3678.02 6274.51,3682.77 6257.37,3691.14 6242.94,3695.29 6233.06,3697.14 6215.92,3700.26 6199.63,3704.50 6183.28,3709.68 6166.92,3718.89" disallow="tram rail_urban rail rail_electric rail_fast ship" />
    <edge id="-107234439#3" from="1232870126" to="5768557515" priority="3" type="highway.residential" numLanes="1" speed="13.89" disallow="tram rail_urban rail rail_electric rail_fast ship" />
    <edge id="-107234439#4" from="1232869649" to="1232870126" priority="3" type="highway.residential" numLanes="1" speed="13.89" disallow="tram rail_urban rail rail_electric rail_fast ship" />
    <edge id="-107234439#5" from="473436638" to="1232869649" priority="3" type="highway.residential" numLanes="1" speed="13.89" shape="6303.97,3587.27 6303.03,3597.04 6302.86,3614.80" disallow="tram rail_urban rail rail_electric rail_fast ship" />
    <edge id="-107234465#0" from="1650432451" to="1232869687" priority="3" type="highway.residential" numLanes="1" speed="13.89" shape="5337.47,2979.32 5345.43,2979.51 5405.30,2998.73 5412.03,2999.60 5418.14,2998.01 5431.75,2953.53 5433.18,2948.73 5434.09,2945.65" disallow="tram rail_urban rail rail_electric rail_fast ship" />
    <edge id="-107234465#1" from="473422708" to="1650432451" priority="3" type="highway.residential" numLanes="1" speed="13.89" shape="5299.22,2954.52 5306.36,2955.64 5331.64,2962.89 5337.47,2979.32" disallow="tram rail_urban rail rail_electric rail_fast ship" />
    <edge id="-107619765" from="1236534693" to="473409015" priority="3" type="highway.residential" numLanes="1" speed="13.89" shape="4284.08,2101.39 4287.43,2092.32 4288.94,2087.63 4325.72,1977.15 4330.31,1963.13 4334.16,1960.69" disallow="tram rail_urban rail rail_electric rail_fast ship" />
    <edge id="-107619767#0" from="1236534687" to="1236534693" priority="3" type="highway.residential" numLanes="1" speed="13.89" shape="4350.21,2123.49 4335.95,2118.51 4296.43,2106.00 4293.31,2104.94 4284.08,2101.39" disallow="tram rail_urban rail rail_electric rail_fast ship" />
    <edge id="-107619769#0" from="4153826720" to="473411439" priority="3" type="highway.residential" numLanes="1" speed="13.89" shape="4300.30,2641.46 4361.23,2637.66 4364.83,2637.43" disallow="tram rail_urban rail rail_electric rail_fast ship" />
    <edge id="-107619769#1" from="6985147710" to="4153826720" priority="3" type="highway.residential" numLanes="1" speed="13.89" disallow="tram rail_urban rail rail_electric rail_fast ship" />
    <edge id="-107619770#0" from="1236534687" to="1236534666" priority="3" type="highway.residential" numLanes="1" speed="13.89" disallow="tram rail_urban rail rail_electric rail_fast ship" />
    <edge id="-107619770#1" from="4947019522" to="1236534687" priority="3" type="highway.residential" numLanes="1" speed="13.89" disallow="tram rail_urban rail rail_electric rail_fast ship" />
    <edge id="-107619770#2" from="4947019530" to="4947019522" priority="3" type="highway.residential" numLanes="1" speed="13.89" disallow="tram rail_urban rail rail_electric rail_fast ship" />
    <edge id="-107619772#0" from="342014763" to="1236534651" priority="3" type="highway.residential" numLanes="1" speed="13.89" shape="4130.33,2620.35 4135.96,2631.27 4142.61,2637.99 4158.35,2648.41" disallow="tram rail_urban rail rail_electric rail_fast ship" />
    <edge id="-107619772#1" from="2210243445" to="342014763" priority="3" type="highway.residential" numLanes="1" speed="13.89" disallow="tram rail_urban rail rail_electric rail_fast ship" />
    <edge id="-107619772#2" from="4153826721" to="2210243445" priority="3" type="highway.residential" numLanes="1" speed="13.89" shape="4051.84,2383.41 4055.74,2418.86 4064.01,2451.85 4088.91,2536.55 4109.40,2580.41 4123.93,2608.72" disallow="tram rail_urban rail rail_electric rail_fast ship" />
    <edge id="-107619772#3" from="4153826708" to="4153826721" priority="3" type="highway.residential" numLanes="1" speed="13.89" disallow="tram rail_urban rail rail_electric rail_fast ship" />
    <edge id="-107619774" from="473409026" to="468006355" priority="3" type="highway.residential" numLanes="1" speed="13.89" disallow="tram rail_urban rail rail_electric rail_fast ship" />
    <edge id="-1087443723#0" from="9963515658" to="338823637" priority="10" type="highway.tertiary" numLanes="1" speed="13.89" shape="4761.08,1447.35 4755.07,1448.57 4750.10,1450.87 4745.36,1453.08" disallow="tram rail_urban rail rail_electric rail_fast ship" />
    <edge id="-108773857#0" from="1247130283" to="1247130285" priority="3" type="highway.residential" numLanes="1" speed="13.89" shape="5274.37,2574.50 5273.69,2569.79 5281.29,2552.32" disallow="tram rail_urban rail rail_electric rail_fast ship" />
    <edge id="-108773857#1" from="1247130354" to="1247130283" priority="3" type="highway.residential" numLanes="1" speed="13.89" shape="5312.10,2642.14 5308.96,2628.72 5306.73,2598.29 5305.66,2590.43 5299.86,2584.64 5289.34,2579.92 5274.37,2574.50" disallow="tram rail_urban rail rail_electric rail_fast ship" />
    <edge id="-108773860#0" from="3739728002" to="473419127" priority="3" type="highway.residential" numLanes="1" speed="13.89" disallow="tram rail_urban rail rail_electric rail_fast ship" />
    <edge id="-108773860#1" from="1247130354" to="3739728002" priority="3" type="highway.residential" numLanes="1" speed="13.89" shape="5312.10,2642.14 5346.12,2591.67 5352.82,2585.87 5360.41,2582.06 5370.41,2580.40 5380.69,2580.52 5411.40,2588.80 5429.41,2595.09" disallow="tram rail_urban rail rail_electric rail_fast ship" />
    <edge id="-108773860#2" from="1247130467" to="1247130354" priority="3" type="highway.residential" numLanes="1" speed="13.89" shape="5222.65,2729.92 5226.54,2728.71 5228.72,2728.09 5251.11,2721.10 5257.81,2717.74 5263.15,2714.26 5266.69,2710.84 5270.36,2706.47 5285.07,2683.66 5312.10,2642.14" disallow="tram rail_urban rail rail_electric rail_fast ship" />
    <edge id="-108773868" from="1232869869" to="1247130270" priority="3" type="highway.residential" numLanes="1" speed="13.89" shape="5575.11,2987.86 5581.01,2984.01 5584.16,2979.77 5587.72,2977.72 5676.48,3002.36" disallow="tram rail_urban rail rail_electric rail_fast ship" />
    <edge id="-108773872#0" from="6877057452" to="1247130311" priority="3" type="highway.residential" numLanes="1" speed="13.89" disallow="tram rail_urban rail rail_electric rail_fast ship" />
    <edge id="-108773872#1" from="1247130437" to="6877057452" priority="3" type="highway.residential" numLanes="1" speed="13.89" disallow="tram rail_urban rail rail_electric rail_fast ship" />
    <edge id="-108773872#2" from="1247130481" to="1247130437" priority="3" type="highway.residential" numLanes="1" speed="13.89" shape="5592.06,2807.60 5588.50,2817.95 5586.72,2823.08 5585.83,2828.14 5586.70,2832.47 5589.96,2840.00 5595.77,2851.35" disallow="tram rail_urban rail rail_electric rail_fast ship" />
    <edge id="-108773874#0" from="1247130469" to="1247130309" priority="3" type="highway.residential" numLanes="1" speed="13.89" disallow="tram rail_urban rail rail_electric rail_fast ship" />
    <edge id="-108773874#1" from="1247130311" to="1247130469" priority="3" type="highway.residential" numLanes="1" speed="13.89" disallow="tram rail_urban rail rail_electric rail_fast ship" />
    <edge id="-108773874#2" from="3739728286" to="1247130311" priority="3" type="highway.residential" numLanes="1" speed="13.89" disallow="tram rail_urban rail rail_electric rail_fast ship" />
    <edge id="-108773874#3" from="1247130394" to="3739728286" priority="3" type="highway.residential" numLanes="1" speed="13.89" disallow="tram rail_urban rail rail_electric rail_fast ship" />
    <edge id="-108773877#0" from="3739728003" to="473419127" priority="3" type="highway.residential" numLanes="1" speed="13.89" shape="5446.83,2597.48 5440.15,2594.57 5431.93,2595.97" disallow="tram rail_urban rail rail_electric rail_fast ship" />
    <edge id="-108773877#1" from="473422737" to="3739728003" priority="3" type="highway.residential" numLanes="1" speed="13.89" shape="5484.49,2672.96 5482.77,2668.98 5465.69,2635.92 5451.80,2607.86 5446.83,2597.48" disallow="tram rail_urban rail rail_electric rail_fast ship" />
    <edge id="-108773877#2" from="473422739" to="473422737" priority="3" type="highway.residential" numLanes="1" speed="13.89" shape="5513.58,2787.24 5510.17,2771.48 5494.37,2706.98 5484.49,2672.96" disallow="tram rail_urban rail rail_electric rail_fast ship" />
    <edge id="-108773878#0" from="4525247652" to="473422733" priority="3" type="highway.residential" numLanes="1" speed="13.89" shape="5697.02,2840.09 5687.18,2836.30 5646.55,2824.74" disallow="tram rail_urban rail rail_electric rail_fast ship" />
    <edge id="-108773878#1" from="473422749" to="4525247652" priority="3" type="highway.residential" numLanes="1" speed="13.89" shape="5827.16,2913.31 5817.18,2905.66 5777.19,2875.89 5753.84,2863.32 5710.32,2845.20 5697.02,2840.09" disallow="tram rail_urban rail rail_electric rail_fast ship" />
    <edge id="-108773881" from="2327031670" to="918168627" priority="12" type="highway.primary" numLanes="2" speed="27.78" shape="6857.34,2294.09 6871.89,2298.28 7037.17,2346.08 7084.39,2359.53" disallow="tram rail_urban rail rail_electric rail_fast ship">
        <param key="ref" value="D 222" />
    </edge>
    <edge id="-108773883#0" from="473419098" to="473419096" priority="3" type="highway.residential" numLanes="1" speed="13.89" shape="5283.80,2249.07 5262.81,2245.63 5238.01,2246.46 5198.27,2249.95 5178.66,2251.28" disallow="tram rail_urban rail rail_electric rail_fast ship" />
    <edge id="-108773883#1" from="4525247648" to="473419098" priority="3" type="highway.residential" numLanes="1" speed="13.89" shape="5561.67,2395.55 5531.44,2359.04 5512.02,2341.64 5480.15,2319.03 5458.11,2305.11 5433.61,2293.25 5398.18,2278.33 5367.41,2266.66 5283.80,2249.07" disallow="tram rail_urban rail rail_electric rail_fast ship" />
    <edge id="-108773883#2" from="3029468463" to="4525247648" priority="3" type="highway.residential" numLanes="1" speed="13.89" shape="5593.63,2432.92 5566.34,2400.91 5561.67,2395.55" disallow="tram rail_urban rail rail_electric rail_fast ship" />
    <edge id="-108773883#3" from="473419103" to="3029468463" priority="3" type="highway.residential" numLanes="1" speed="13.89" shape="5612.15,2452.50 5605.66,2445.44 5593.63,2432.92" disallow="tram rail_urban rail rail_electric rail_fast ship" />
    <edge id="-108773883#4" from="4237299539" to="473419103" priority="3" type="highway.residential" numLanes="1" speed="13.89" shape="5660.84,2489.28 5640.43,2476.00 5622.62,2462.18 5612.15,2452.50" disallow="tram rail_urban rail rail_electric rail_fast ship" />
    <edge id="-108773883#5" from="11724073006" to="4237299539" priority="3" type="highway.residential" numLanes="1" speed="13.89" shape="5702.27,2526.48 5697.82,2521.48 5674.17,2498.99 5660.84,2489.28" disallow="tram rail_urban rail rail_electric rail_fast ship" />
    <edge id="-108773883#6" from="473422731" to="11724073006" priority="3" type="highway.residential" numLanes="1" speed="13.89" disallow="tram rail_urban rail rail_electric rail_fast ship" />
    <edge id="-108773883#7" from="7966803213" to="473422731" priority="3" type="highway.residential" numLanes="1" speed="13.89" disallow="tram rail_urban rail rail_electric rail_fast ship" />
    <edge id="-108773883#8" from="473419105" to="7966803213" priority="3" type="highway.residential" numLanes="1" speed="13.89" disallow="tram rail_urban rail rail_electric rail_fast ship" />
    <edge id="-108808627" from="468004572" to="468004566" priority="3" type="highway.residential" numLanes="1" speed="13.89" shape="4888.68,2037.98 4880.83,2037.70 4869.35,2036.74" disallow="tram rail_urban rail rail_electric rail_fast ship" />
    <edge id="-108808648#0" from="1247481482" to="1247481464" priority="3" type="highway.residential" numLanes="1" speed="13.89" disallow="tram rail_urban rail rail_electric rail_fast ship" />
    <edge id="-108808648#1" from="1247481519" to="1247481482" priority="3" type="highway.residential" numLanes="1" speed="13.89" disallow="tram rail_urban rail rail_electric rail_fast ship" />
    <edge id="-108808656" from="468004531" to="7222433240" priority="3" type="highway.residential" numLanes="1" speed="13.89" disallow="tram rail_urban rail rail_electric rail_fast ship" />
    <edge id="-108808657" from="1247481482" to="468005528" priority="3" type="highway.residential" numLanes="1" speed="13.89" disallow="tram rail_urban rail rail_electric rail_fast ship" />
    <edge id="-108968131#0" from="8766045935" to="1248926127" priority="3" type="highway.residential" numLanes="1" speed="13.89" shape="3444.99,3074.48 3443.60,3071.44 3435.73,3064.76 3426.31,3055.94 3413.06,3039.00 3398.76,3022.33 3372.01,2996.78 3361.38,2989.70 3338.94,2980.66 3297.22,2964.53 3282.62,2961.67 3261.00,2957.43 3254.74,2953.34" disallow="tram rail_urban rail rail_electric rail_fast ship" />
    <edge id="-108968131#1" from="1248926060" to="8766045935" priority="3" type="highway.residential" numLanes="1" speed="13.89" shape="3944.82,3517.37 3935.14,3517.53 3830.35,3477.39 3747.00,3444.80 3708.72,3430.29 3615.47,3399.40 3597.67,3391.54 3580.35,3379.20 3568.06,3363.61 3546.51,3322.68 3512.71,3256.70 3476.08,3206.52 3471.65,3199.87 3457.93,3179.26 3447.54,3080.08 3444.99,3074.48" disallow="tram rail_urban rail rail_electric rail_fast ship" />
    <edge id="-109790565#0" from="473419087" to="473436749" priority="3" type="highway.residential" numLanes="1" speed="13.89" shape="4507.39,3070.01 4510.84,3064.56 4508.82,3021.76 4511.59,3013.82 4523.66,2991.80 4527.37,2981.44" disallow="tram rail_urban rail rail_electric rail_fast ship" />
    <edge id="-109790565#1" from="1255852809" to="473419087" priority="3" type="highway.residential" numLanes="1" speed="13.89" shape="4155.02,3151.83 4226.08,3161.72 4257.87,3164.68 4275.62,3163.31 4295.81,3157.34 4312.05,3153.53 4336.37,3151.59 4344.64,3147.28 4367.99,3129.44 4396.62,3113.67 4409.36,3106.67 4420.66,3101.76 4503.40,3073.25 4507.39,3070.01" disallow="tram rail_urban rail rail_electric rail_fast ship" />
    <edge id="-109790565#2" from="2210243785" to="1255852809" priority="3" type="highway.residential" numLanes="1" speed="13.89" disallow="tram rail_urban rail rail_electric rail_fast ship" />
    <edge id="-109790565#3" from="4947019306" to="2210243785" priority="3" type="highway.residential" numLanes="1" speed="13.89" shape="4086.54,3147.71 4113.90,3149.90 4125.14,3150.09" disallow="tram rail_urban rail rail_electric rail_fast ship" />
    <edge id="-109790566" from="9251591502" to="1963070981" priority="3" type="highway.residential" numLanes="1" speed="13.89" shape="3721.47,1166.72 3723.91,1163.96 3727.54,1159.23 3734.73,1098.75 3738.94,1063.36 3741.80,1048.11" disallow="tram rail_urban rail rail_electric rail_fast ship" />
    <edge id="-109790567#0" from="1255852801" to="1255852738" priority="3" type="highway.residential" numLanes="1" speed="13.89" shape="4166.16,1280.94 4172.47,1267.31 4176.03,1254.64 4175.35,1245.31 4170.23,1235.49 4158.44,1220.36 4154.31,1208.78 4155.31,1196.49 4157.69,1184.95" disallow="tram rail_urban rail rail_electric rail_fast ship" />
    <edge id="-109790567#1" from="1255852740" to="1255852801" priority="3" type="highway.residential" numLanes="1" speed="13.89" shape="4101.78,1440.82 4118.97,1398.92 4120.07,1389.39 4118.79,1378.20 4117.73,1364.35 4127.12,1320.48 4131.56,1311.16 4139.15,1303.60 4159.85,1286.83 4166.16,1280.94" disallow="tram rail_urban rail rail_electric rail_fast ship" />
    <edge id="-109790567#2" from="1648778972" to="1255852740" priority="3" type="highway.residential" numLanes="1" speed="13.89" shape="4062.93,1540.57 4069.98,1518.36 4080.58,1481.06 4090.46,1455.44 4101.78,1440.82" disallow="tram rail_urban rail rail_electric rail_fast ship" />
    <edge id="-109790567#3" from="4307749641" to="1648778972" priority="3" type="highway.residential" numLanes="1" speed="13.89" shape="3984.41,1659.35 4005.50,1636.99 4025.21,1612.80 4042.41,1586.24 4055.94,1559.08 4062.93,1540.57" disallow="tram rail_urban rail rail_electric rail_fast ship" />
    <edge id="-109790567#4" from="1255852736" to="4307749641" priority="3" type="highway.residential" numLanes="1" speed="13.89" disallow="tram rail_urban rail rail_electric rail_fast ship" />
    <edge id="-109790567#5" from="1648779112" to="1255852736" priority="3" type="highway.residential" numLanes="1" speed="13.89" shape="3901.24,1722.50 3955.83,1685.04 3974.71,1667.46" disallow="tram rail_urban rail rail_electric rail_fast ship" />
    <edge id="-109790567#6" from="8459392785" to="1648779112" priority="3" type="highway.residential" numLanes="1" speed="13.89" shape="3846.98,1736.19 3851.95,1734.53 3864.41,1735.12 3874.84,1737.39 3886.47,1732.20 3901.24,1722.50" disallow="tram rail_urban rail rail_electric rail_fast ship" />
    <edge id="-1177888143" from="10942137989" to="1488980217" priority="3" type="highway.residential" numLanes="1" speed="13.89" disallow="tram rail_urban rail rail_electric rail_fast ship" />
    <edge id="-1177888146" from="10942147012" to="1488980267" priority="3" type="highway.residential" numLanes="1" speed="13.89" shape="4543.22,975.88 4566.75,983.17 4576.79,987.15" disallow="tram rail_urban rail rail_electric rail_fast ship" />
    <edge id="-1177893232" from="4153826791" to="1901420618" priority="12" type="highway.primary" numLanes="1" speed="27.78" disallow="tram rail_urban rail rail_electric rail_fast ship">
        <param key="ref" value="D 934" />
    </edge>
    <edge id="-1192536744" from="11070305545" to="11070305544" priority="4" type="highway.unclassified" numLanes="1" speed="13.89" shape="5176.77,1174.57 5141.50,1198.79 5130.80,1207.86" disallow="tram rail_urban rail rail_electric rail_fast ship" />
    <edge id="-1220303669" from="7475259134" to="7475259143" priority="4" type="highway.unclassified" numLanes="1" speed="13.89" disallow="tram rail_urban rail rail_electric rail_fast ship" />
    <edge id="-1220304081" from="11307763821" to="11307763820" priority="4" type="highway.unclassified" numLanes="1" speed="13.89" shape="4965.07,1155.26 4964.39,1164.98 4963.18,1188.75" disallow="tram rail_urban rail rail_electric rail_fast ship" />
    <edge id="-1260661089" from="473419126" to="3739728003" priority="3" type="highway.residential" numLanes="1" speed="13.89" disallow="tram rail_urban rail rail_electric rail_fast ship" />
    <edge id="-1323914080" from="4727474281" to="468004863" priority="4" type="highway.unclassified" numLanes="1" speed="13.89" shape="4270.48,1826.63 4263.46,1815.36 4247.06,1808.86 4201.91,1829.27 4152.30,1866.72 4112.26,1894.98 4084.91,1911.17 4076.13,1916.38" disallow="tram rail_urban rail rail_electric rail_fast ship" />
    <edge id="-134461605#0" from="1963070924" to="1963070910" priority="4" type="highway.unclassified" numLanes="1" speed="13.89" disallow="tram rail_urban rail rail_electric rail_fast ship" />
    <edge id="-134461605#1" from="342014854" to="1963070924" priority="4" type="highway.unclassified" numLanes="1" speed="13.89" disallow="tram rail_urban rail rail_electric rail_fast ship" />
    <edge id="-134461605#2" from="5064438649" to="342014854" priority="4" type="highway.unclassified" numLanes="1" speed="13.89" disallow="tram rail_urban rail rail_electric rail_fast ship" />
    <edge id="-134461605#3" from="342014847" to="5064438649" priority="4" type="highway.unclassified" numLanes="1" speed="13.89" shape="3925.75,552.15 4033.96,325.88 4048.81,298.38" disallow="tram rail_urban rail rail_electric rail_fast ship" />
    <edge id="-134461605#4" from="11696768056" to="342014847" priority="4" type="highway.unclassified" numLanes="1" speed="13.89" shape="3784.80,716.60 3793.87,707.39 3830.96,665.39 3907.60,577.07 3923.08,556.12 3925.75,552.15" disallow="tram rail_urban rail rail_electric rail_fast ship" />
    <edge id="-134461605#5" from="1478257773" to="11696768056" priority="4" type="highway.unclassified" numLanes="1" speed="13.89" disallow="tram rail_urban rail rail_electric rail_fast ship" />
    <edge id="-134461617#0" from="1963071095" to="1255852774" priority="4" type="highway.unclassified" numLanes="1" speed="13.89" disallow="tram rail_urban rail rail_electric rail_fast ship" />
    <edge id="-134461617#1" from="8766046270" to="1963071095" priority="4" type="highway.unclassified" numLanes="1" speed="13.89" shape="3789.89,1565.70 3799.97,1514.32 3802.11,1498.07 3804.15,1476.43 3805.59,1452.56 3804.48,1432.39 3801.24,1420.07 3793.83,1402.83 3784.14,1386.67 3771.06,1371.64 3755.12,1356.50 3745.43,1346.28 3738.20,1337.54 3732.79,1328.05 3729.44,1318.58 3719.37,1284.27" disallow="tram rail_urban rail rail_electric rail_fast ship" />
    <edge id="-134461617#2" from="342014799" to="8766046270" priority="4" type="highway.unclassified" numLanes="1" speed="13.89" shape="3795.76,1596.44 3790.90,1583.72 3789.48,1571.94 3789.89,1565.70" disallow="tram rail_urban rail rail_electric rail_fast ship" />
    <edge id="-134461617#3" from="8459392785" to="342014799" priority="4" type="highway.unclassified" numLanes="1" speed="13.89" shape="3846.98,1736.19 3844.53,1727.70 3829.66,1673.69 3821.71,1651.79 3814.78,1636.07 3795.76,1596.44" disallow="tram rail_urban rail rail_electric rail_fast ship" />
    <edge id="-135330123" from="342014799" to="1486326971" priority="3" type="highway.residential" numLanes="1" speed="13.89" shape="3795.76,1596.44 3783.50,1594.46 3700.70,1588.50 3673.63,1586.90 3642.81,1586.49 3625.87,1583.43 3572.12,1570.12 3545.94,1564.40 3516.99,1559.37 3478.89,1555.02" disallow="tram rail_urban rail rail_electric rail_fast ship" />
    <edge id="-135588163#0" from="1488980222" to="1488980221" priority="3" type="highway.residential" numLanes="1" speed="13.89" shape="4665.86,808.22 4637.77,822.48 4621.03,833.54 4616.34,838.75 4613.04,841.40" disallow="tram rail_urban rail rail_electric rail_fast ship" />
    <edge id="-135588163#1" from="1488980268" to="1488980222" priority="3" type="highway.residential" numLanes="1" speed="13.89" shape="4730.63,786.01 4716.12,785.80 4702.74,789.45 4665.86,808.22" disallow="tram rail_urban rail rail_electric rail_fast ship" />
    <edge id="-135588167" from="1488980251" to="1488980207" priority="3" type="highway.residential" numLanes="1" speed="13.89" shape="4704.68,930.60 4705.83,954.99 4714.97,963.15" disallow="tram rail_urban rail rail_electric rail_fast ship" />
    <edge id="-135588170" from="1488980209" to="1488980224" priority="3" type="highway.residential" numLanes="1" speed="13.89" shape="4622.81,985.39 4632.53,990.80 4637.69,1043.23" disallow="tram rail_urban rail rail_electric rail_fast ship" />
    <edge id="-135588172" from="9776973091" to="1488980281" priority="3" type="highway.residential" numLanes="1" speed="13.89" shape="4624.76,1163.62 4606.76,1145.32 4602.72,1143.84 4599.22,1145.44 4551.20,1201.37" disallow="tram rail_urban rail rail_electric rail_fast ship" />
    <edge id="-135588175#0" from="1488980221" to="1488980206" priority="3" type="highway.residential" numLanes="1" speed="13.89" disallow="tram rail_urban rail rail_electric rail_fast ship" />