<?xml version="1.0" encoding="UTF-8"?>

<!-- generated on 2025-04-04 16:23:43 by Eclipse SUMO netconvert Version 1.19.0
<configuration xmlns:xsi="http://www.w3.org/2001/XMLSchema-instance" xsi:noNamespaceSchemaLocation="http://sumo.dlr.de/xsd/netconvertConfiguration.xsd">

    <input>
        <sumo-net-file value="coulommiers/coulommiers.net.xml"/>
    </input>

    <output>
        <plain-output-prefix value="coulommiers/coulommiers"/>
    </output>

    <processing>
        <geometry.min-radius.fix.railways value="false"/>
        <geometry.max-grade.fix value="false"/>
        <offset.disable-normalization value="true"/>
        <lefthand value="0"/>
    </processing>

    <tls_building>
        <tls.ignore-internal-junction-jam value="1"/>
    </tls_building>

    <junctions>
        <no-turnarounds value="true"/>
        <junctions.corner-detail value="5"/>
        <junctions.limit-turn-speed value="5.50"/>
        <rectangular-lane-cut value="0"/>
    </junctions>

    <pedestrian>
        <walkingareas value="0"/>
    </pedestrian>

</configuration>
-->

<edges version="1.16" xmlns:xsi="http://www.w3.org/2001/XMLSchema-instance" xsi:noNamespaceSchemaLocation="http://sumo.dlr.de/xsd/edges_file.xsd">
    <location netOffset="-501380.46,-5404724.96" convBoundary="0.00,0.00,7462.73,8042.35" origBoundary="2.830881,48.795483,3.150761,48.900875" projParameter="+proj=utm +zone=31 +ellps=WGS84 +datum=WGS84 +units=m +no_defs"/>

    <edge id="-1002435620" from="1478257749" to="1478257773" priority="4" type="highway.unclassified" numLanes="1" speed="13.89" shape="3442.35,885.09 3454.32,870.48 3462.80,863.38 3472.83,857.35 3483.59,850.65 3506.99,831.19 3536.73,806.83 3551.40,797.30 3578.75,784.85 3631.32,765.87 3717.62,747.84 3739.80,742.11 3752.93,738.72 3762.50,734.24" disallow="tram rail_urban rail rail_electric rail_fast ship"/>
    <edge id="-1002435622" from="1646777387" to="9251591561" priority="1" type="highway.track" numLanes="1" speed="5.56" shape="6870.56,1621.44 6854.52,1622.49 6806.86,1635.79 6592.83,1699.59 6475.52,1735.41 6334.38,1781.10 6268.44,1798.99 6209.67,1815.52 6190.70,1818.03 6158.56,1819.13 6138.21,1809.42 6134.06,1800.65" allow="pedestrian motorcycle moped bicycle"/>
    <edge id="-1004099260" from="3739728269" to="1247130467" priority="3" type="highway.residential" numLanes="1" speed="13.89" shape="5263.66,2875.51 5258.18,2865.91 5253.48,2853.53 5249.94,2840.59 5226.52,2745.23 5222.65,2729.92" disallow="tram rail_urban rail rail_electric rail_fast ship"/>
    <edge id="-1022870773#0" from="cluster_8804288720_9433542010" to="9433542012" priority="1" type="highway.service" numLanes="1" speed="5.56" shape="4628.59,1998.80 4630.84,2008.92" allow="pedestrian delivery bicycle"/>
    <edge id="-1022870773#1" from="9433542011" to="cluster_8804288720_9433542010" priority="1" type="highway.service" numLanes="1" speed="5.56" shape="4625.62,1985.53 4628.59,1998.80" allow="pedestrian delivery bicycle"/>
    <edge id="-1022870774" from="9433542014" to="8804288717" priority="1" type="highway.service" numLanes="1" speed="5.56" allow="pedestrian delivery bicycle"/>
    <edge id="-1033188872#0" from="9519009591" to="9519009590" priority="1" type="highway.service" numLanes="1" speed="5.56" allow="pedestrian delivery bicycle"/>
    <edge id="-1033188872#1" from="9519009595" to="9519009591" priority="1" type="highway.service" numLanes="1" speed="5.56" shape="5917.36,867.74 5922.00,866.39 5925.96,866.26 5961.00,879.23 5943.89,924.77" allow="pedestrian delivery bicycle"/>
    <edge id="-1033188872#2" from="9519009591" to="9519009595" priority="1" type="highway.service" numLanes="1" speed="5.56" shape="5943.89,924.77 5899.98,909.21 5914.22,870.33 5917.36,867.74" allow="pedestrian delivery bicycle"/>
    <edge id="-1064567684" from="9776973056" to="9776973060" priority="1" type="highway.path" numLanes="1" speed="5.56" shape="5034.44,3057.49 5038.55,3042.13 5055.39,3033.91 5083.56,3021.18 5118.59,3004.70" width="2.00" allow="pedestrian bicycle"/>
    <edge id="-1064567685" from="9776973061" to="9776973063" priority="3" type="highway.residential" numLanes="1" speed="13.89" shape="5021.64,3019.64 5004.12,3025.11 5013.23,3055.16" disallow="tram rail_urban rail rail_electric rail_fast ship"/>
    <edge id="-1064567686" from="1247130283" to="473422697" priority="1" type="highway.path" numLanes="1" speed="5.56" shape="5274.37,2574.50 5269.05,2585.28 5265.10,2589.79 5257.62,2590.37 5238.72,2587.99 5153.52,2581.41" width="2.00" allow="pedestrian bicycle"/>
    <edge id="-1064567687" from="11710994335" to="9776973071" priority="1" type="highway.service" numLanes="1" speed="5.56" shape="4915.84,2344.28 4929.87,2352.44 4923.00,2411.14" allow="pedestrian delivery bicycle"/>
    <edge id="-1064567688#0" from="9776973071" to="9776973073" priority="1" type="highway.service" numLanes="1" speed="5.56" shape="4923.00,2411.14 4844.64,2404.28 4834.41,2406.04" allow="pedestrian delivery bicycle"/>
    <edge id="-1064567688#1" from="9776973069" to="9776973071" priority="1" type="highway.service" numLanes="1" speed="5.56" shape="4943.06,2433.15 4920.42,2429.49 4923.00,2411.14" allow="pedestrian delivery bicycle"/>
    <edge id="-1064567689" from="473419095" to="473419138" priority="3" type="highway.residential" numLanes="1" speed="13.89" disallow="tram rail_urban rail rail_electric rail_fast ship"/>
    <edge id="-1064567690" from="9776973074" to="3739718823" priority="1" type="highway.service" numLanes="1" speed="5.56" shape="5255.39,2477.10 5239.43,2493.56 5222.69,2494.53 5210.52,2499.93" allow="pedestrian delivery bicycle"/>
    <edge id="-1064567691#0" from="9776973082" to="9776973080" priority="1" type="highway.service" numLanes="1" speed="5.56" allow="pedestrian delivery bicycle"/>
    <edge id="-1064567691#1" from="9776973077" to="9776973082" priority="1" type="highway.service" numLanes="1" speed="5.56" shape="5123.37,2475.27 5128.32,2454.07 5096.82,2449.13 5085.85,2485.33" allow="pedestrian delivery bicycle"/>
    <edge id="-1064567692#0" from="9776973082" to="1830045478" priority="3" type="highway.residential" numLanes="1" speed="13.89" shape="5085.85,2485.33 5077.00,2474.92 5073.47,2471.97 5055.34,2482.73" disallow="tram rail_urban rail rail_electric rail_fast ship"/>
    <edge id="-1064567692#1" from="9776973081" to="9776973082" priority="3" type="highway.residential" numLanes="1" speed="13.89" disallow="tram rail_urban rail rail_electric rail_fast ship"/>
    <edge id="-1064567693" from="9776973085" to="9776973086" priority="1" type="highway.service" numLanes="1" speed="5.56" allow="pedestrian delivery bicycle"/>
    <edge id="-1064567694#0" from="11702265675" to="289100712" priority="1" type="highway.service" numLanes="1" speed="5.56" shape="4493.43,1603.02 4453.90,1642.34 4467.79,1664.18" allow="pedestrian delivery bicycle"/>
    <edge id="-1064567694#1" from="289100711" to="11702265675" priority="1" type="highway.service" numLanes="1" speed="5.56" shape="4515.38,1610.79 4499.24,1597.24 4493.43,1603.02" allow="pedestrian delivery bicycle"/>
    <edge id="-1064567695" from="9776973089" to="9776973090" priority="4" type="highway.unclassified" numLanes="1" speed="13.89" disallow="tram rail_urban rail rail_electric rail_fast ship"/>
    <edge id="-1064567696" from="cluster_2309719070_9776973093" to="9776973094" priority="1" type="highway.service" numLanes="1" speed="5.56" shape="4454.14,1126.60 4436.49,1147.10" allow="pedestrian delivery bicycle"/>
    <edge id="-1064567700" from="9776973107" to="9776973108" priority="1" type="highway.service" numLanes="1" speed="5.56" allow="pedestrian delivery bicycle"/>
    <edge id="-1064567702" from="9776973113" to="9776973114" priority="1" type="highway.service" numLanes="1" speed="5.56" allow="pedestrian delivery bicycle"/>
    <edge id="-1064567703" from="9776973115" to="9776985032" priority="1" type="highway.service" numLanes="1" speed="5.56" shape="6141.82,1316.64 6141.25,1297.20 6134.76,1287.77" allow="pedestrian delivery bicycle"/>
    <edge id="-1064567704" from="9776985017" to="9776985018" priority="1" type="highway.service" numLanes="1" speed="5.56" allow="pedestrian delivery bicycle"/>
    <edge id="-1064567705#0" from="9776985018" to="9776985020" priority="1" type="highway.service" numLanes="1" speed="5.56" allow="pedestrian delivery bicycle"/>
    <edge id="-1064567705#1" from="9776985019" to="9776985018" priority="1" type="highway.service" numLanes="1" speed="5.56" allow="pedestrian delivery bicycle"/>
    <edge id="-1064567708#0" from="9776973114" to="9776985033" priority="1" type="highway.service" numLanes="1" speed="5.56" shape="6121.56,1288.23 6073.47,1289.93 6049.86,1290.78" allow="pedestrian delivery bicycle"/>
    <edge id="-1064567708#1" from="9776985032" to="9776973114" priority="1" type="highway.service" numLanes="1" speed="5.56" allow="pedestrian delivery bicycle"/>
    <edge id="-1064567708#2" from="9776985030" to="9776985032" priority="1" type="highway.service" numLanes="1" speed="5.56" shape="6203.39,1217.36 6133.47,1219.42 6134.76,1287.77" allow="pedestrian delivery bicycle"/>
    <edge id="-1072014089" from="9836561014" to="9836561015" priority="1" type="highway.service" numLanes="1" speed="5.56" allow="pedestrian delivery bicycle"/>
    <edge id="-107234406#0" from="4947019305" to="1232869898" priority="4" type="highway.unclassified" numLanes="1" speed="13.89" shape="5695.91,3071.79 5684.61,3085.60 5680.95,3089.82 5678.03,3091.94" disallow="tram rail_urban rail rail_electric rail_fast ship"/>
    <edge id="-107234406#1" from="4947019300" to="4947019305" priority="4" type="highway.unclassified" numLanes="1" speed="13.89" disallow="tram rail_urban rail rail_electric rail_fast ship"/>
    <edge id="-107234406#2" from="1927872492" to="4947019300" priority="4" type="highway.unclassified" numLanes="1" speed="13.89" disallow="tram rail_urban rail rail_electric rail_fast ship"/>
    <edge id="-107234409#0" from="1927872589" to="cluster_1650432582_473436654" priority="3" type="highway.residential" numLanes="1" speed="13.89" shape="5850.45,3665.57 5866.72,3712.16 5903.46,3826.43" disallow="tram rail_urban rail rail_electric rail_fast ship"/>
    <edge id="-107234409#1" from="473436652" to="1927872589" priority="3" type="highway.residential" numLanes="1" speed="13.89" disallow="tram rail_urban rail rail_electric rail_fast ship"/>
    <edge id="-107234409#2" from="1232869816" to="473436652" priority="3" type="highway.residential" numLanes="1" speed="13.89" shape="5794.45,3458.73 5818.94,3573.58 5836.85,3626.59" disallow="tram rail_urban rail rail_electric rail_fast ship"/>
    <edge id="-107234420#0" from="1232869985" to="1232870051" priority="1" type="highway.service" numLanes="1" speed="5.56" allow="pedestrian delivery bicycle"/>
    <edge id="-107234420#1" from="1232870107" to="1232869985" priority="1" type="highway.service" numLanes="1" speed="5.56" shape="5610.25,3382.70 5609.46,3389.38 5611.82,3395.86 5616.34,3399.20 5622.64,3399.60 5631.30,3395.49 5637.61,3389.80" allow="pedestrian delivery bicycle"/>
    <edge id="-107234420#2" from="1232869985" to="1232870107" priority="1" type="highway.service" numLanes="1" speed="5.56" shape="5637.61,3389.80 5633.10,3380.96 5627.59,3376.44 5620.90,3375.65 5614.59,3377.80 5610.25,3382.70" allow="pedestrian delivery bicycle"/>
    <edge id="-107234423#0" from="473422694" to="473422689" priority="3" type="highway.residential" numLanes="1" speed="13.89" shape="5128.56,2545.07 5122.22,2540.35 5114.49,2536.17 5106.67,2533.31 5100.17,2532.03 5094.94,2531.62 5091.38,2531.91 5084.22,2534.08 5080.05,2534.36" disallow="tram rail_urban rail rail_electric rail_fast ship"/>
    <edge id="-107234423#1" from="473422697" to="473422694" priority="3" type="highway.residential" numLanes="1" speed="13.89" shape="5153.52,2581.41 5138.39,2557.31 5134.16,2551.51 5128.56,2545.07" disallow="tram rail_urban rail rail_electric rail_fast ship"/>
    <edge id="-107234423#2" from="1247130467" to="473422697" priority="3" type="highway.residential" numLanes="1" speed="13.89" shape="5222.65,2729.92 5214.97,2696.97 5210.56,2679.40 5207.27,2670.66 5204.62,2664.72 5199.41,2655.39 5188.60,2637.95 5173.22,2613.39 5153.52,2581.41" disallow="tram rail_urban rail rail_electric rail_fast ship"/>
    <edge id="-107234427#0" from="473436657" to="1236534718" priority="3" type="highway.residential" numLanes="1" speed="13.89" shape="5514.92,3367.27 5567.42,3260.91 5571.73,3249.48 5572.73,3239.12 5573.37,3233.97" disallow="tram rail_urban rail rail_electric rail_fast ship"/>
    <edge id="-107234427#1" from="8804316160" to="473436657" priority="3" type="highway.residential" numLanes="1" speed="13.89" disallow="tram rail_urban rail rail_electric rail_fast ship"/>
    <edge id="-107234427#2" from="473436659" to="8804316160" priority="3" type="highway.residential" numLanes="1" speed="13.89" disallow="tram rail_urban rail rail_electric rail_fast ship"/>
    <edge id="-107234427#3" from="1650432521" to="473436659" priority="3" type="highway.residential" numLanes="1" speed="13.89" disallow="tram rail_urban rail rail_electric rail_fast ship"/>
    <edge id="-107234427#4" from="5912741315" to="1650432521" priority="3" type="highway.residential" numLanes="1" speed="13.89" disallow="tram rail_urban rail rail_electric rail_fast ship"/>
    <edge id="-107234427#5" from="473436660" to="5912741315" priority="3" type="highway.residential" numLanes="1" speed="13.89" disallow="tram rail_urban rail rail_electric rail_fast ship"/>
    <edge id="-107234439#0" from="1232870152" to="cluster_1650432582_473436654" priority="3" type="highway.residential" numLanes="1" speed="13.89" shape="6112.22,3747.23 6096.85,3752.35 5981.93,3795.09 5936.48,3813.54 5903.46,3826.43" disallow="tram rail_urban rail rail_electric rail_fast ship"/>
    <edge id="-107234439#1" from="1232870072" to="1232870152" priority="3" type="highway.residential" numLanes="1" speed="13.89" shape="6166.92,3718.89 6131.42,3738.42 6112.22,3747.23" disallow="tram rail_urban rail rail_electric rail_fast ship"/>
    <edge id="-107234439#2" from="5768557515" to="1232870072" priority="3" type="highway.residential" numLanes="1" speed="13.89" shape="6300.16,3641.39 6299.02,3648.50 6295.66,3656.79 6290.13,3666.55 6285.21,3672.97 6280.18,3678.02 6274.51,3682.77 6257.37,3691.14 6242.94,3695.29 6233.06,3697.14 6215.92,3700.26 6199.63,3704.50 6183.28,3709.68 6166.92,3718.89" disallow="tram rail_urban rail rail_electric rail_fast ship"/>
    <edge id="-107234439#3" from="1232870126" to="5768557515" priority="3" type="highway.residential" numLanes="1" speed="13.89" disallow="tram rail_urban rail rail_electric rail_fast ship"/>
    <edge id="-107234439#4" from="1232869649" to="1232870126" priority="3" type="highway.residential" numLanes="1" speed="13.89" disallow="tram rail_urban rail rail_electric rail_fast ship"/>
    <edge id="-107234439#5" from="cluster_1650432541_473436638" to="1232869649" priority="3" type="highway.residential" numLanes="1" speed="13.89" shape="6303.97,3587.27 6303.03,3597.04 6302.86,3614.80" disallow="tram rail_urban rail rail_electric rail_fast ship"/>
    <edge id="-107234460#0" from="1927872674" to="1927872641" priority="1" type="highway.service" numLanes="1" speed="5.56" shape="5675.08,3339.05 5670.55,3338.52 5667.79,3342.14 5669.49,3346.36" allow="pedestrian delivery bicycle"/>
    <edge id="-107234460#1" from="1927872641" to="1927872674" priority="1" type="highway.service" numLanes="1" speed="5.56" shape="5669.49,3346.36 5674.32,3346.92 5676.95,3343.20 5675.08,3339.05" allow="pedestrian delivery bicycle"/>
    <edge id="-107234465#0" from="1650432451" to="cluster_1232869687_1232870023" priority="3" type="highway.residential" numLanes="1" speed="13.89" shape="5337.47,2979.32 5345.43,2979.51 5405.30,2998.73 5412.03,2999.60 5418.14,2998.01 5431.75,2953.53 5433.18,2948.73 5434.09,2945.65" disallow="tram rail_urban rail rail_electric rail_fast ship"/>
    <edge id="-107234465#1" from="473422708" to="1650432451" priority="3" type="highway.residential" numLanes="1" speed="13.89" shape="5299.22,2954.52 5306.36,2955.64 5331.64,2962.89 5337.47,2979.32" disallow="tram rail_urban rail rail_electric rail_fast ship"/>
    <edge id="-107619765" from="1236534693" to="cluster_473409015_7222433242" priority="3" type="highway.residential" numLanes="1" speed="13.89" shape="4284.08,2101.39 4287.43,2092.32 4288.94,2087.63 4325.72,1977.15 4330.31,1963.13 4334.16,1960.69" disallow="tram rail_urban rail rail_electric rail_fast ship"/>
    <edge id="-107619767#0" from="1236534687" to="1236534693" priority="3" type="highway.residential" numLanes="1" speed="13.89" shape="4350.21,2123.49 4335.95,2118.51 4296.43,2106.00 4293.31,2104.94 4284.08,2101.39" disallow="tram rail_urban rail rail_electric rail_fast ship"/>
    <edge id="-107619769#0" from="4153826720" to="473411439" priority="3" type="highway.residential" numLanes="1" speed="13.89" shape="4300.30,2641.46 4361.23,2637.66 4364.83,2637.43" disallow="tram rail_urban rail rail_electric rail_fast ship"/>
    <edge id="-107619769#1" from="6985147710" to="4153826720" priority="3" type="highway.residential" numLanes="1" speed="13.89" disallow="tram rail_urban rail rail_electric rail_fast ship"/>
    <edge id="-107619770#0" from="1236534687" to="1236534666" priority="3" type="highway.residential" numLanes="1" speed="13.89" disallow="tram rail_urban rail rail_electric rail_fast ship"/>
    <edge id="-107619770#1" from="4947019522" to="1236534687" priority="3" type="highway.residential" numLanes="1" speed="13.89" disallow="tram rail_urban rail rail_electric rail_fast ship"/>
    <edge id="-107619770#2" from="4947019530" to="4947019522" priority="3" type="highway.residential" numLanes="1" speed="13.89" disallow="tram rail_urban rail rail_electric rail_fast ship"/>
    <edge id="-107619772#0" from="cluster_2210243445_342014763" to="1236534651" priority="3" type="highway.residential" numLanes="1" speed="13.89" shape="4130.33,2620.35 4135.96,2631.27 4142.61,2637.99 4158.35,2648.41" disallow="tram rail_urban rail rail_electric rail_fast ship"/>
    <edge id="-107619772#2" from="4153826721" to="cluster_2210243445_342014763" priority="3" type="highway.residential" numLanes="1" speed="13.89" shape="4051.84,2383.41 4055.74,2418.86 4064.01,2451.85 4088.91,2536.55 4109.40,2580.41 4123.93,2608.72" disallow="tram rail_urban rail rail_electric rail_fast ship"/>
    <edge id="-107619772#3" from="4153826708" to="4153826721" priority="3" type="highway.residential" numLanes="1" speed="13.89" disallow="tram rail_urban rail rail_electric rail_fast ship"/>
    <edge id="-1087443714" from="cluster_10942137984_1507332940_289098851_289098852" to="4237563910" priority="1" type="highway.path" numLanes="1" speed="5.56" shape="4711.67,1401.33 4713.46,1396.65" width="2.00" allow="pedestrian bicycle"/>
    <edge id="-1087443715#0" from="cluster_10942060287_1507332976_1507332986" to="9963515680" priority="1" type="highway.cycleway" numLanes="1" speed="5.56" shape="4719.02,1376.09 4719.90,1373.26 4720.20,1372.39 4725.68,1357.38" width="2.00" allow="bicycle"/>
    <edge id="-1087443723#0" from="9963515658" to="338823637" priority="10" type="highway.tertiary" numLanes="1" speed="13.89" shape="4761.08,1447.35 4755.07,1448.57 4750.10,1450.87 4745.36,1453.08" disallow="tram rail_urban rail rail_electric rail_fast ship"/>
    <edge id="-1087443724" from="9963515658" to="4237563917" priority="1" type="highway.path" numLanes="1" speed="5.56" shape="4761.08,1447.35 4758.73,1442.94 4732.77,1433.72 4720.30,1433.48 4716.83,1436.65" width="2.00" allow="pedestrian bicycle"/>
    <edge id="-1087443725#1" from="1648778794" to="cluster_1648778775_1648778790" priority="1" type="highway.path" numLanes="1" speed="5.56" shape="4711.73,1436.07 4710.13,1435.39 4706.46,1434.09 4704.37,1433.03" width="2.00" allow="pedestrian bicycle"/>
    <edge id="-1087443725#2" from="4237563917" to="1648778794" priority="1" type="highway.path" numLanes="1" speed="5.56" shape="4716.83,1436.65 4714.30,1436.43 4711.73,1436.07" width="2.00" allow="pedestrian bicycle"/>
    <edge id="-1087443744#1" from="9963515724" to="cluster_3739718754_5927438542_9963515707" priority="1" type="highway.service" numLanes="1" speed="5.56" shape="4680.14,1350.94 4691.47,1342.96 4698.56,1350.33 4690.32,1367.06 4687.24,1369.70" allow="pedestrian delivery bicycle"/>
    <edge id="-108773857#0" from="1247130283" to="1247130285" priority="3" type="highway.residential" numLanes="1" speed="13.89" shape="5274.37,2574.50 5273.69,2569.79 5281.29,2552.32" disallow="tram rail_urban rail rail_electric rail_fast ship"/>
    <edge id="-108773857#1" from="1247130354" to="1247130283" priority="3" type="highway.residential" numLanes="1" speed="13.89" shape="5312.10,2642.14 5308.96,2628.72 5306.73,2598.29 5305.66,2590.43 5299.86,2584.64 5289.34,2579.92 5274.37,2574.50" disallow="tram rail_urban rail rail_electric rail_fast ship"/>
    <edge id="-108773860#1" from="1247130354" to="cluster_3739728002_3739728003_473419126_473419127" priority="3" type="highway.residential" numLanes="1" speed="13.89" shape="5312.10,2642.14 5346.12,2591.67 5352.82,2585.87 5360.41,2582.06 5370.41,2580.40 5380.69,2580.52 5411.40,2588.80 5429.41,2595.09" disallow="tram rail_urban rail rail_electric rail_fast ship"/>
    <edge id="-108773860#2" from="1247130467" to="1247130354" priority="3" type="highway.residential" numLanes="1" speed="13.89" shape="5222.65,2729.92 5226.54,2728.71 5228.72,2728.09 5251.11,2721.10 5257.81,2717.74 5263.15,2714.26 5266.69,2710.84 5270.36,2706.47 5285.07,2683.66 5312.10,2642.14" disallow="tram rail_urban rail rail_electric rail_fast ship"/>
    <edge id="-108773862#0" from="cluster_1247130452_1247130483" to="1648779100" priority="1" type="highway.service" numLanes="1" speed="13.89" shape="4892.80,1702.11 4893.64,1695.40 4892.17,1695.19 4878.14,1693.20" allow="pedestrian delivery bicycle"/>
    <edge id="-108773862#1" from="cluster_1247130299_6566994523" to="cluster_1247130452_1247130483" priority="1" type="highway.service" numLanes="1" speed="13.89" shape="4889.01,1732.76 4892.80,1702.11" allow="pedestrian delivery bicycle"/>
    <edge id="-108773862#2" from="1648779109" to="cluster_1247130299_6566994523" priority="1" type="highway.service" numLanes="1" speed="13.89" shape="4873.64,1725.98 4876.98,1727.45 4889.01,1732.76" allow="pedestrian delivery bicycle"/>
    <edge id="-108773864#0" from="1247130422" to="1247130414" priority="1" type="highway.path" numLanes="1" speed="5.56" width="2.00" allow="pedestrian bicycle"/>
    <edge id="-108773864#1" from="1247130466" to="1247130422" priority="1" type="highway.path" numLanes="1" speed="5.56" width="2.00" allow="pedestrian bicycle"/>
    <edge id="-108773864#2" from="1247130425" to="1247130466" priority="1" type="highway.path" numLanes="1" speed="5.56" shape="4953.11,1647.80 4912.66,1642.42 4909.85,1667.12" width="2.00" allow="pedestrian bicycle"/>
    <edge id="-108773864#3" from="1247130453" to="1247130425" priority="1" type="highway.path" numLanes="1" speed="5.56" width="2.00" allow="pedestrian bicycle"/>
    <edge id="-108773867#0" from="1247130351" to="1247130406" priority="1" type="highway.path" numLanes="1" speed="5.56" shape="4951.38,1666.26 4954.32,1667.74 4956.29,1670.38 4956.88,1673.62" width="2.00" allow="pedestrian bicycle"/>
    <edge id="-108773867#1" from="1247130330" to="1247130351" priority="1" type="highway.path" numLanes="1" speed="5.56" shape="4942.48,1673.02 4943.27,1669.96 4945.32,1667.52 4948.20,1666.21 4951.38,1666.26" width="2.00" allow="pedestrian bicycle"/>
    <edge id="-108773867#2" from="1247130409" to="1247130330" priority="1" type="highway.path" numLanes="1" speed="5.56" shape="4948.73,1680.37 4945.48,1679.08 4943.22,1676.42 4942.48,1673.02" width="2.00" allow="pedestrian bicycle"/>
    <edge id="-108773867#3" from="1247130406" to="1247130409" priority="1" type="highway.path" numLanes="1" speed="5.56" shape="4956.88,1673.62 4956.13,1676.46 4954.29,1678.77 4951.67,1680.15 4948.73,1680.37" width="2.00" allow="pedestrian bicycle"/>
    <edge id="-108773868" from="1232869869" to="1247130270" priority="3" type="highway.residential" numLanes="1" speed="13.89" shape="5575.11,2987.86 5581.01,2984.01 5584.16,2979.77 5587.72,2977.72 5676.48,3002.36" disallow="tram rail_urban rail rail_electric rail_fast ship"/>
    <edge id="-108773870#0" from="1247130453" to="1247130342" priority="1" type="highway.path" numLanes="1" speed="5.56" width="2.00" allow="pedestrian bicycle"/>
    <edge id="-108773870#1" from="1247130424" to="1247130453" priority="1" type="highway.path" numLanes="1" speed="5.56" width="2.00" allow="pedestrian bicycle"/>
    <edge id="-108773872#0" from="6877057452" to="cluster_1247130311_3739728286" priority="3" type="highway.residential" numLanes="1" speed="13.89" shape="5589.47,2872.49 5578.47,2911.20" disallow="tram rail_urban rail rail_electric rail_fast ship"/>
    <edge id="-108773872#1" from="1247130437" to="6877057452" priority="3" type="highway.residential" numLanes="1" speed="13.89" disallow="tram rail_urban rail rail_electric rail_fast ship"/>
    <edge id="-108773872#2" from="cluster_1247130481_473422760" to="1247130437" priority="3" type="highway.residential" numLanes="1" speed="13.89" shape="5592.06,2807.60 5588.50,2817.95 5586.72,2823.08 5585.83,2828.14 5586.70,2832.47 5589.96,2840.00 5595.77,2851.35" disallow="tram rail_urban rail rail_electric rail_fast ship"/>
    <edge id="-108773873#0" from="2994337789" to="2994337752" priority="1" type="highway.path" numLanes="1" speed="5.56" shape="4960.65,1720.15 4966.36,1723.51 4974.27,1732.57" width="2.00" allow="pedestrian bicycle"/>
    <edge id="-108773873#1" from="2994337772" to="2994337789" priority="1" type="highway.path" numLanes="1" speed="5.56" shape="4929.91,1742.71 4933.06,1740.74 4939.36,1736.83 4947.05,1730.35 4953.16,1725.26 4960.65,1720.15" width="2.00" allow="pedestrian bicycle"/>
    <edge id="-108773873#2" from="2994337766" to="2994337772" priority="1" type="highway.path" numLanes="1" speed="5.56" shape="4908.47,1712.44 4917.72,1727.76 4924.59,1737.59 4929.91,1742.71" width="2.00" allow="pedestrian bicycle"/>
    <edge id="-108773874#0" from="1247130469" to="1247130309" priority="3" type="highway.residential" numLanes="1" speed="13.89" disallow="tram rail_urban rail rail_electric rail_fast ship"/>
    <edge id="-108773874#1" from="cluster_1247130311_3739728286" to="1247130469" priority="3" type="highway.residential" numLanes="1" speed="13.89" shape="5578.47,2911.20 5541.26,2899.82" disallow="tram rail_urban rail rail_electric rail_fast ship"/>
    <edge id="-108773874#3" from="1247130394" to="cluster_1247130311_3739728286" priority="3" type="highway.residential" numLanes="1" speed="13.89" shape="5606.51,2919.33 5584.97,2913.24" disallow="tram rail_urban rail rail_electric rail_fast ship"/>
    <edge id="-108773875#0" from="1247130482" to="1247130343" priority="1" type="highway.path" numLanes="1" speed="5.56" width="2.00" allow="pedestrian bicycle"/>
    <edge id="-108773875#1" from="1247130399" to="1247130482" priority="1" type="highway.path" numLanes="1" speed="5.56" width="2.00" allow="pedestrian bicycle"/>
    <edge id="-108773875#2" from="1247130403" to="1247130399" priority="1" type="highway.path" numLanes="1" speed="5.56" width="2.00" allow="pedestrian bicycle"/>
    <edge id="-108773876#0" from="1247130368" to="1247130342" priority="1" type="highway.path" numLanes="1" speed="5.56" width="2.00" allow="pedestrian bicycle"/>
    <edge id="-108773876#1" from="1247130414" to="1247130368" priority="1" type="highway.path" numLanes="1" speed="5.56" width="2.00" allow="pedestrian bicycle"/>
    <edge id="-108773876#2" from="1247130409" to="1247130414" priority="1" type="highway.path" numLanes="1" speed="5.56" width="2.00" allow="pedestrian bicycle"/>
    <edge id="-108773877#1" from="473422737" to="cluster_3739728002_3739728003_473419126_473419127" priority="3" type="highway.residential" numLanes="1" speed="13.89" shape="5484.49,2672.96 5482.77,2668.98 5465.69,2635.92 5451.80,2607.86 5446.83,2597.48" disallow="tram rail_urban rail rail_electric rail_fast ship"/>
    <edge id="-108773877#2" from="473422739" to="473422737" priority="3" type="highway.residential" numLanes="1" speed="13.89" shape="5513.58,2787.24 5510.17,2771.48 5494.37,2706.98 5484.49,2672.96" disallow="tram rail_urban rail rail_electric rail_fast ship"/>
    <edge id="-108773878#0" from="4525247652" to="473422733" priority="3" type="highway.residential" numLanes="1" speed="13.89" shape="5697.02,2840.09 5687.18,2836.30 5646.55,2824.74" disallow="tram rail_urban rail rail_electric rail_fast ship"/>
    <edge id="-108773878#1" from="473422749" to="4525247652" priority="3" type="highway.residential" numLanes="1" speed="13.89" shape="5827.16,2913.31 5817.18,2905.66 5777.19,2875.89 5753.84,2863.32 5710.32,2845.20 5697.02,2840.09" disallow="tram rail_urban rail rail_electric rail_fast ship"/>
    <edge id="-108773881" from="2327031670" to="918168627" priority="12" type="highway.primary" numLanes="2" speed="27.78" shape="6857.34,2294.09 6871.89,2298.28 7037.17,2346.08 7084.39,2359.53" disallow="tram rail_urban rail rail_electric rail_fast ship">
        <param key="ref" value="D 222"/>
    </edge>
    <edge id="-108773882" from="1247130330" to="1247130466" priority="1" type="highway.path" numLanes="1" speed="5.56" width="2.00" allow="pedestrian bicycle"/>
    <edge id="-108773883#0" from="473419098" to="473419096" priority="3" type="highway.residential" numLanes="1" speed="13.89" shape="5283.80,2249.07 5262.81,2245.63 5238.01,2246.46 5198.27,2249.95 5178.66,2251.28" disallow="tram rail_urban rail rail_electric rail_fast ship"/>