<?xml version="1.0" encoding="UTF-8"?>

<!-- generated on 2025-04-09 00:36:58 by Eclipse SUMO netconvert Version 1.19.0
<configuration xmlns:xsi="http://www.w3.org/2001/XMLSchema-instance" xsi:noNamespaceSchemaLocation="http://sumo.dlr.de/xsd/netconvertConfiguration.xsd">

    <input>
        <sumo-net-file value="coulommiers/coulommiers.net.xml"/>
    </input>

    <output>
        <plain-output-prefix value="coulommiers/coulommiers"/>
    </output>

    <processing>
        <geometry.min-radius.fix.railways value="false"/>
        <geometry.max-grade.fix value="false"/>
        <offset.disable-normalization value="true"/>
        <lefthand value="0"/>
    </processing>

    <tls_building>
        <tls.ignore-internal-junction-jam value="1"/>
    </tls_building>

    <junctions>
        <no-turnarounds value="true"/>
        <junctions.corner-detail value="5"/>
        <junctions.limit-turn-speed value="5.50"/>
        <rectangular-lane-cut value="0"/>
    </junctions>

    <pedestrian>
        <walkingareas value="0"/>
    </pedestrian>

</configuration>
-->

<connections version="1.16" xmlns:xsi="http://www.w3.org/2001/XMLSchema-instance" xsi:noNamespaceSchemaLocation="http://sumo.dlr.de/xsd/connections_file.xsd">
    <connection from="-1002435620" to="-134461605#5" fromLane="0" toLane="0"/>
    <connection from="-1002435620" to="-185658477#4" fromLane="0" toLane="0"/>
    <connection from="-1002435620" to="134461605#6" fromLane="0" toLane="0"/>

    <connection from="-1002435622" to="1002435622" fromLane="0" toLane="0"/>

    <connection from="-1004099259" to="-39124870#3" fromLane="0" toLane="0"/>
    <connection from="-1004099259" to="-39124870#3" fromLane="1" toLane="1"/>
    <connection from="-1004099259" to="1004099258" fromLane="1" toLane="0"/>
    <connection from="-1004099259" to="1004099259" fromLane="1" toLane="1"/>

    <connection from="-1004099260" to="-107234423#2" fromLane="0" toLane="0"/>
    <connection from="-1004099260" to="-108773860#2" fromLane="0" toLane="0"/>
    <connection from="-1004099260" to="1004099260" fromLane="0" toLane="0"/>

    <connection from="-1022870772" to="951188570#2" fromLane="0" toLane="0"/>
    <connection from="-1022870772" to="1022870772" fromLane="0" toLane="0"/>

    <connection from="-1022870773#0" to="1022870773#0" fromLane="0" toLane="0"/>

    <connection from="-1022870773#1" to="-1022870772" fromLane="0" toLane="0"/>
    <connection from="-1022870773#1" to="-1022870773#0" fromLane="0" toLane="0"/>
    <connection from="-1022870773#1" to="1022870773#1" fromLane="0" toLane="0"/>

    <connection from="-1022870774" to="951188570#1" fromLane="0" toLane="0"/>
    <connection from="-1022870774" to="1022870774" fromLane="0" toLane="0"/>

    <connection from="-1033188872#0" to="-152047144#0" fromLane="0" toLane="0"/>
    <connection from="-1033188872#0" to="152047144#1" fromLane="0" toLane="0"/>
    <connection from="-1033188872#0" to="1033188872#0" fromLane="0" toLane="0"/>

    <connection from="-1033188872#1" to="-1033188872#0" fromLane="0" toLane="0"/>
    <connection from="-1033188872#1" to="-1033188872#2" fromLane="0" toLane="0"/>
    <connection from="-1033188872#1" to="1033188872#1" fromLane="0" toLane="0"/>

    <connection from="-1033188872#2" to="-1033188872#1" fromLane="0" toLane="0"/>

    <connection from="-1064567684" to="370259793#1" fromLane="0" toLane="0"/>
    <connection from="-1064567684" to="-370259793#0" fromLane="0" toLane="0"/>
    <connection from="-1064567684" to="1064567684" fromLane="0" toLane="0"/>

    <connection from="-1064567685" to="456246560#1" fromLane="0" toLane="0"/>
    <connection from="-1064567685" to="-456246560#0" fromLane="0" toLane="0"/>
    <connection from="-1064567685" to="1064567685" fromLane="0" toLane="0"/>

    <connection from="-1064567686" to="107234423#2" fromLane="0" toLane="0"/>
    <connection from="-1064567686" to="-107234423#1" fromLane="0" toLane="0"/>
    <connection from="-1064567686" to="1064567686" fromLane="0" toLane="0"/>

    <connection from="-1064567687" to="1064567688#1" fromLane="0" toLane="0"/>
    <connection from="-1064567687" to="-1064567688#0" fromLane="0" toLane="0"/>
    <connection from="-1064567687" to="1064567687" fromLane="0" toLane="0"/>

    <connection from="-1064567688#0" to="294503494#4" fromLane="0" toLane="0"/>
    <connection from="-1064567688#0" to="-294503494#3" fromLane="0" toLane="0"/>
    <connection from="-1064567688#0" to="1064567688#0" fromLane="0" toLane="0"/>

    <connection from="-1064567688#1" to="-1064567688#0" fromLane="0" toLane="0"/>
    <connection from="-1064567688#1" to="1064567687" fromLane="0" toLane="0"/>
    <connection from="-1064567688#1" to="1064567688#1" fromLane="0" toLane="0"/>

    <connection from="-1064567689" to="39517941#2" fromLane="0" toLane="0"/>
    <connection from="-1064567689" to="1064567689" fromLane="0" toLane="0"/>

    <connection from="-1064567690" to="39518099#1" fromLane="0" toLane="0"/>
    <connection from="-1064567690" to="-39518099#0" fromLane="0" toLane="0"/>
    <connection from="-1064567690" to="1064567690" fromLane="0" toLane="0"/>

    <connection from="-1064567691#0" to="1064567691#0" fromLane="0" toLane="0"/>

    <connection from="-1064567691#1" to="1064567692#1" fromLane="0" toLane="0"/>
    <connection from="-1064567691#1" to="-1064567691#0" fromLane="0" toLane="0"/>
    <connection from="-1064567691#1" to="-1064567692#0" fromLane="0" toLane="0"/>
    <connection from="-1064567691#1" to="1064567691#1" fromLane="0" toLane="0"/>

    <connection from="-1064567692#0" to="-370259792#0" fromLane="0" toLane="0"/>
    <connection from="-1064567692#0" to="370259792#1" fromLane="0" toLane="0"/>
    <connection from="-1064567692#0" to="1064567692#0" fromLane="0" toLane="0"/>

    <connection from="-1064567692#1" to="-1064567691#0" fromLane="0" toLane="0"/>
    <connection from="-1064567692#1" to="-1064567692#0" fromLane="0" toLane="0"/>
    <connection from="-1064567692#1" to="1064567691#1" fromLane="0" toLane="0"/>

    <connection from="-1064567693" to="39517938#2" fromLane="0" toLane="0"/>
    <connection from="-1064567693" to="-39517938#1" fromLane="0" toLane="0"/>
    <connection from="-1064567693" to="1064567693" fromLane="0" toLane="0"/>

    <connection from="-1064567694#0" to="152046714#1" fromLane="0" toLane="0"/>
    <connection from="-1064567694#0" to="-152046714#0" fromLane="0" toLane="0"/>
    <connection from="-1064567694#0" to="1064567694#0" fromLane="0" toLane="0"/>

    <connection from="-1064567694#1" to="-1064567694#0" fromLane="0" toLane="0"/>
    <connection from="-1064567694#1" to="-1258850660" fromLane="0" toLane="0"/>
    <connection from="-1064567694#1" to="1064567694#1" fromLane="0" toLane="0"/>

    <connection from="-1064567695" to="-152046967#0" fromLane="0" toLane="0"/>
    <connection from="-1064567695" to="152046967#1" fromLane="0" toLane="0"/>
    <connection from="-1064567695" to="1064567695" fromLane="0" toLane="0"/>

    <connection from="-1064567696" to="1064567696" fromLane="0" toLane="0"/>

    <connection from="-1064567700" to="135588176#3" fromLane="0" toLane="0"/>
    <connection from="-1064567700" to="-135588176#2" fromLane="0" toLane="0"/>
    <connection from="-1064567700" to="1064567700" fromLane="0" toLane="0"/>

    <connection from="-1064567702" to="1064567708#1" fromLane="0" toLane="0"/>
    <connection from="-1064567702" to="-1064567708#0" fromLane="0" toLane="0"/>
    <connection from="-1064567702" to="1064567702" fromLane="0" toLane="0"/>

    <connection from="-1064567703" to="-1064567708#1" fromLane="0" toLane="0"/>
    <connection from="-1064567703" to="1064567708#2" fromLane="0" toLane="0"/>
    <connection from="-1064567703" to="1064567703" fromLane="0" toLane="0"/>

    <connection from="-1064567704" to="-1064567705#0" fromLane="0" toLane="0"/>
    <connection from="-1064567704" to="1064567705#1" fromLane="0" toLane="0"/>
    <connection from="-1064567704" to="1064567704" fromLane="0" toLane="0"/>

    <connection from="-1064567705#0" to="-618249956#0" fromLane="0" toLane="0"/>
    <connection from="-1064567705#0" to="618249956#1" fromLane="0" toLane="0"/>
    <connection from="-1064567705#0" to="1064567705#0" fromLane="0" toLane="0"/>

    <connection from="-1064567705#1" to="1064567704" fromLane="0" toLane="0"/>
    <connection from="-1064567705#1" to="-1064567705#0" fromLane="0" toLane="0"/>
    <connection from="-1064567705#1" to="1064567705#1" fromLane="0" toLane="0"/>

    <connection from="-1064567708#0" to="-152047123#3" fromLane="0" toLane="0"/>
    <connection from="-1064567708#0" to="152047123#4" fromLane="0" toLane="0"/>
    <connection from="-1064567708#0" to="1064567707" fromLane="0" toLane="0"/>

    <connection from="-1064567708#1" to="-1064567708#0" fromLane="0" toLane="0"/>
    <connection from="-1064567708#1" to="1064567702" fromLane="0" toLane="0"/>
    <connection from="-1064567708#1" to="1064567708#1" fromLane="0" toLane="0"/>

    <connection from="-1064567708#2" to="1064567703" fromLane="0" toLane="0"/>
    <connection from="-1064567708#2" to="-1064567708#1" fromLane="0" toLane="0"/>
    <connection from="-1064567708#2" to="1064567708#2" fromLane="0" toLane="0"/>

    <connection from="-1072014089" to="-151705546#1" fromLane="0" toLane="0"/>
    <connection from="-1072014089" to="151705546#2" fromLane="0" toLane="0"/>
    <connection from="-1072014089" to="1072014089" fromLane="0" toLane="0"/>

    <connection from="-107234406#0" to="370259801#1" fromLane="0" toLane="0" visibility="9.00"/>

    <connection from="-107234406#1" to="-107234406#0" fromLane="0" toLane="0"/>
    <connection from="-107234406#1" to="504554774#0" fromLane="0" toLane="0"/>
    <connection from="-107234406#1" to="107234406#1" fromLane="0" toLane="0"/>

    <connection from="-107234406#2" to="-107234406#1" fromLane="0" toLane="0"/>
    <connection from="-107234406#2" to="-504554774#1" fromLane="0" toLane="0"/>
    <connection from="-107234406#2" to="107234406#2" fromLane="0" toLane="0"/>

    <connection from="-107234409#0" to="107234439#0" fromLane="0" toLane="0"/>
    <connection from="-107234409#0" to="-618249953#1" fromLane="0" toLane="0"/>
    <connection from="-107234409#0" to="107234409#0" fromLane="0" toLane="0"/>

    <connection from="-107234409#1" to="-107234409#0" fromLane="0" toLane="0"/>
    <connection from="-107234409#1" to="152209390#0" fromLane="0" toLane="0"/>

    <connection from="-107234409#2" to="-107234409#1" fromLane="0" toLane="0"/>
    <connection from="-107234409#2" to="-182438142#1" fromLane="0" toLane="0"/>

    <connection from="-107234420#0" to="1259663655#1" fromLane="0" toLane="0"/>
    <connection from="-107234420#0" to="-1259663655#0" fromLane="0" toLane="0"/>
    <connection from="-107234420#0" to="107234420#0" fromLane="0" toLane="0"/>

    <connection from="-107234420#1" to="-107234420#2" fromLane="0" toLane="0"/>
    <connection from="-107234420#1" to="-107234420#0" fromLane="0" toLane="0"/>
    <connection from="-107234420#1" to="107234420#1" fromLane="0" toLane="0"/>

    <connection from="-107234420#2" to="-107234420#1" fromLane="0" toLane="0"/>

    <connection from="-107234423#0" to="-370259793#4" fromLane="0" toLane="0"/>
    <connection from="-107234423#0" to="-39518098" fromLane="0" toLane="0"/>
    <connection from="-107234423#0" to="370259792#0" fromLane="0" toLane="0"/>
    <connection from="-107234423#0" to="107234423#0" fromLane="0" toLane="0"/>

    <connection from="-107234423#1" to="-107234423#0" fromLane="0" toLane="0"/>
    <connection from="-107234423#1" to="39518099#0" fromLane="0" toLane="0"/>
    <connection from="-107234423#1" to="107234423#1" fromLane="0" toLane="0"/>

    <connection from="-107234423#2" to="-107234423#1" fromLane="0" toLane="0"/>
    <connection from="-107234423#2" to="1064567686" fromLane="0" toLane="0"/>

    <connection from="-107234427#0" to="-609153405#2" fromLane="0" toLane="0"/>
    <connection from="-107234427#0" to="-370259788" fromLane="0" toLane="0"/>
    <connection from="-107234427#0" to="107234427#0" fromLane="0" toLane="0"/>

    <connection from="-107234427#1" to="-107234427#0" fromLane="0" toLane="0"/>
    <connection from="-107234427#1" to="-211009783" fromLane="0" toLane="0"/>
    <connection from="-107234427#1" to="107234427#1" fromLane="0" toLane="0"/>

    <connection from="-107234427#2" to="-951191092#1" fromLane="0" toLane="0"/>
    <connection from="-107234427#2" to="-107234427#1" fromLane="0" toLane="0"/>

    <connection from="-107234427#3" to="-107234427#2" fromLane="0" toLane="0"/>
    <connection from="-107234427#3" to="39519010#0" fromLane="0" toLane="0"/>
    <connection from="-107234427#3" to="107234427#3" fromLane="0" toLane="0"/>

    <connection from="-107234427#4" to="-107234427#3" fromLane="0" toLane="0"/>
    <connection from="-107234427#4" to="152209362#0" fromLane="0" toLane="0"/>

    <connection from="-107234427#5" to="-107234427#4" fromLane="0" toLane="0"/>
    <connection from="-107234427#5" to="-152209362#2" fromLane="0" toLane="0"/>

    <connection from="-107234439#0" to="-618249953#1" fromLane="0" toLane="0"/>
    <connection from="-107234439#0" to="107234409#0" fromLane="0" toLane="0"/>
    <connection from="-107234439#0" to="107234439#0" fromLane="0" toLane="0"/>

    <connection from="-107234439#1" to="-152209372#1" fromLane="0" toLane="0"/>
    <connection from="-107234439#1" to="-107234439#0" fromLane="0" toLane="0"/>
    <connection from="-107234439#1" to="107234439#1" fromLane="0" toLane="0"/>

    <connection from="-107234439#2" to="-107234439#1" fromLane="0" toLane="0"/>
    <connection from="-107234439#2" to="152209364" fromLane="0" toLane="0"/>
    <connection from="-107234439#2" to="107234439#2" fromLane="0" toLane="0"/>

    <connection from="-107234439#3" to="-107234439#2" fromLane="0" toLane="0"/>
    <connection from="-107234439#3" to="608976687" fromLane="0" toLane="0"/>
    <connection from="-107234439#3" to="107234439#3" fromLane="0" toLane="0"/>

    <connection from="-107234439#4" to="152209356#0" fromLane="0" toLane="0"/>
    <connection from="-107234439#4" to="-107234439#3" fromLane="0" toLane="0"/>
    <connection from="-107234439#4" to="107234439#4" fromLane="0" toLane="0"/>

    <connection from="-107234439#5" to="-107234439#4" fromLane="0" toLane="0"/>
    <connection from="-107234439#5" to="152209387" fromLane="0" toLane="0"/>
    <connection from="-107234439#5" to="107234439#5" fromLane="0" toLane="0"/>

    <connection from="-107234460#0" to="-107234460#1" fromLane="0" toLane="0"/>
    <connection from="-107234460#0" to="-1259663655#2" fromLane="0" toLane="0"/>
    <connection from="-107234460#0" to="107234460#0" fromLane="0" toLane="0"/>

    <connection from="-107234460#1" to="-107234460#0" fromLane="0" toLane="0"/>

    <connection from="-107234465#0" to="107234455#2" fromLane="0" toLane="0"/>
    <connection from="-107234465#0" to="-456246565#2" fromLane="0" toLane="0"/>
    <connection from="-107234465#0" to="456246564" fromLane="0" toLane="0"/>

    <connection from="-107234465#1" to="-107234465#0" fromLane="0" toLane="0"/>
    <connection from="-107234465#1" to="152209402" fromLane="0" toLane="0"/>
    <connection from="-107234465#1" to="107234465#1" fromLane="0" toLane="0"/>

    <connection from="-107619765" to="930904745#0" fromLane="0" toLane="0"/>
    <connection from="-107619765" to="592052488#0" fromLane="0" toLane="0"/>
    <connection from="-107619765" to="-673556025#1" fromLane="0" toLane="0"/>
    <connection from="-107619765" to="107619765" fromLane="0" toLane="0"/>

    <connection from="-107619767#0" to="930904744" fromLane="0" toLane="0"/>
    <connection from="-107619767#0" to="-930904743" fromLane="0" toLane="0"/>
    <connection from="-107619767#0" to="-107619765" fromLane="0" toLane="0"/>
    <connection from="-107619767#0" to="107619767#0" fromLane="0" toLane="0"/>

    <connection from="-107619769#0" to="-39517524#6" fromLane="0" toLane="0"/>
    <connection from="-107619769#0" to="930904742#0" fromLane="0" toLane="0"/>
    <connection from="-107619769#0" to="107619769#0" fromLane="0" toLane="0"/>

    <connection from="-107619769#1" to="414212516" fromLane="0" toLane="0"/>
    <connection from="-107619769#1" to="-107619769#0" fromLane="0" toLane="0"/>
    <connection from="-107619769#1" to="107619769#1" fromLane="0" toLane="0"/>

    <connection from="-107619770#0" to="107619770#0" fromLane="0" toLane="0"/>

    <connection from="-107619770#1" to="107619767#1" fromLane="0" toLane="0"/>
    <connection from="-107619770#1" to="-107619770#0" fromLane="0" toLane="0"/>
    <connection from="-107619770#1" to="-107619767#0" fromLane="0" toLane="0"/>
    <connection from="-107619770#1" to="107619770#1" fromLane="0" toLane="0"/>

    <connection from="-107619770#2" to="-107619770#1" fromLane="0" toLane="0"/>
    <connection from="-107619770#2" to="107619770#2" fromLane="0" toLane="0"/>

    <connection from="-107619772#0" to="-746415891#2" fromLane="0" toLane="0"/>
    <connection from="-107619772#0" to="-211009748#2" fromLane="0" toLane="0"/>
    <connection from="-107619772#0" to="107619772#0" fromLane="0" toLane="0"/>

    <connection from="-107619772#1" to="-107619772#0" fromLane="0" toLane="0"/>
    <connection from="-107619772#1" to="-211009808" fromLane="0" toLane="0"/>
    <connection from="-107619772#1" to="107619772#1" fromLane="0" toLane="0"/>

    <connection from="-107619772#2" to="-107619772#1" fromLane="0" toLane="0"/>
    <connection from="-107619772#2" to="-211009759" fromLane="0" toLane="0"/>
    <connection from="-107619772#2" to="107619772#2" fromLane="0" toLane="0"/>

    <connection from="-107619772#3" to="-107619772#2" fromLane="0" toLane="0"/>
    <connection from="-107619772#3" to="-414212530" fromLane="0" toLane="0"/>
    <connection from="-107619772#3" to="107619772#3" fromLane="0" toLane="0"/>

    <connection from="-107619774" to="39517423" fromLane="0" toLane="0"/>
    <connection from="-107619774" to="107619774" fromLane="0" toLane="0"/>

    <connection from="-1087443714" to="-1177882392#1" fromLane="0" toLane="0"/>
    <connection from="-1087443714" to="1087443714" fromLane="0" toLane="0"/>

    <connection from="-1087443715#0" to="-1177882390#0" fromLane="0" toLane="0"/>
    <connection from="-1087443715#0" to="1177882390#1" fromLane="0" toLane="0"/>

    <connection from="-1087443723#0" to="172050952#0" fromLane="0" toLane="0"/>

    <connection from="-1087443724" to="-1087443725#2" fromLane="0" toLane="0"/>
    <connection from="-1087443724" to="1087443724" fromLane="0" toLane="0"/>

    <connection from="-1087443725#0" to="-1177888138" fromLane="0" toLane="0"/>
    <connection from="-1087443725#0" to="1087443725#0" fromLane="0" toLane="0"/>

    <connection from="-1087443725#1" to="-1087443725#0" fromLane="0" toLane="0"/>
    <connection from="-1087443725#1" to="26388629#1" fromLane="0" toLane="0"/>
    <connection from="-1087443725#1" to="1087443725#1" fromLane="0" toLane="0"/>

    <connection from="-1087443725#2" to="39125486#1" fromLane="0" toLane="0"/>
    <connection from="-1087443725#2" to="-1087443725#1" fromLane="0" toLane="0"/>
    <connection from="-1087443725#2" to="1087443725#2" fromLane="0" toLane="0"/>

    <connection from="-1087443744#0" to="370259832#2" fromLane="0" toLane="0"/>
    <connection from="-1087443744#0" to="1087443744#0" fromLane="0" toLane="0"/>

    <connection from="-1087443744#1" to="-1087443744#0" fromLane="0" toLane="0"/>
    <connection from="-1087443744#1" to="1087443744#1" fromLane="0" toLane="0"/>

    <connection from="-108773857#0" to="108773857#0" fromLane="0" toLane="0"/>

    <connection from="-108773857#1" to="-1064567686" fromLane="0" toLane="0"/>
    <connection from="-108773857#1" to="-108773857#0" fromLane="0" toLane="0"/>

    <connection from="-108773860#0" to="-39517938#4" fromLane="0" toLane="0"/>
    <connection from="-108773860#0" to="108773877#0" fromLane="0" toLane="0"/>
    <connection from="-108773860#0" to="108773860#0" fromLane="0" toLane="0"/>

    <connection from="-108773860#1" to="-108773860#0" fromLane="0" toLane="0"/>
    <connection from="-108773860#1" to="-456246569" fromLane="0" toLane="0"/>
    <connection from="-108773860#1" to="108773860#1" fromLane="0" toLane="0"/>

    <connection from="-108773860#2" to="-108773857#1" fromLane="0" toLane="0"/>
    <connection from="-108773860#2" to="-108773860#1" fromLane="0" toLane="0"/>
    <connection from="-108773860#2" to="108773860#2" fromLane="0" toLane="0"/>

    <connection from="-108773862#0" to="152046940" fromLane="0" toLane="0"/>
    <connection from="-108773862#0" to="108773862#0" fromLane="0" toLane="0"/>

    <connection from="-108773862#1" to="-108773862#0" fromLane="0" toLane="0"/>
    <connection from="-108773862#1" to="-211158617#2" fromLane="0" toLane="0"/>
    <connection from="-108773862#1" to="108773862#1" fromLane="0" toLane="0"/>

    <connection from="-108773862#2" to="-108773862#1" fromLane="0" toLane="0"/>
    <connection from="-108773862#2" to="211158606#0" fromLane="0" toLane="0"/>
    <connection from="-108773862#2" to="108773862#2" fromLane="0" toLane="0"/>

    <connection from="-108773864#0" to="108773876#2" fromLane="0" toLane="0"/>
    <connection from="-108773864#0" to="-108773876#1" fromLane="0" toLane="0"/>
    <connection from="-108773864#0" to="108773864#0" fromLane="0" toLane="0"/>

    <connection from="-108773864#1" to="-108773864#0" fromLane="0" toLane="0"/>
    <connection from="-108773864#1" to="108773864#1" fromLane="0" toLane="0"/>

    <connection from="-108773864#2" to="108773882" fromLane="0" toLane="0"/>
    <connection from="-108773864#2" to="-108773864#1" fromLane="0" toLane="0"/>
    <connection from="-108773864#2" to="108773864#2" fromLane="0" toLane="0"/>

    <connection from="-108773864#3" to="-108773864#2" fromLane="0" toLane="0"/>
    <connection from="-108773864#3" to="108773864#3" fromLane="0" toLane="0"/>

    <connection from="-108773867#0" to="152209319#0" fromLane="0" toLane="0"/>
    <connection from="-108773867#0" to="-108773867#3" fromLane="0" toLane="0"/>
    <connection from="-108773867#0" to="108773867#0" fromLane="0" toLane="0"/>

    <connection from="-108773867#1" to="-108773867#0" fromLane="0" toLane="0"/>
    <connection from="-108773867#1" to="108773867#1" fromLane="0" toLane="0"/>

    <connection from="-108773867#2" to="-108773882" fromLane="0" toLane="0"/>
    <connection from="-108773867#2" to="-108773867#1" fromLane="0" toLane="0"/>
    <connection from="-108773867#2" to="108773867#2" fromLane="0" toLane="0"/>

    <connection from="-108773867#3" to="-108773876#2" fromLane="0" toLane="0"/>
    <connection from="-108773867#3" to="-108773867#2" fromLane="0" toLane="0"/>
    <connection from="-108773867#3" to="108773867#3" fromLane="0" toLane="0"/>

    <connection from="-108773868" to="108773868" fromLane="0" toLane="0"/>

    <connection from="-108773870#0" to="152209319#1" fromLane="0" toLane="0"/>
    <connection from="-108773870#0" to="108773876#0" fromLane="0" toLane="0"/>
    <connection from="-108773870#0" to="-152209319#0" fromLane="0" toLane="0"/>
    <connection from="-108773870#0" to="108773870#0" fromLane="0" toLane="0"/>

    <connection from="-108773870#1" to="-108773870#0" fromLane="0" toLane="0"/>
    <connection from="-108773870#1" to="-108773864#3" fromLane="0" toLane="0"/>
    <connection from="-108773870#1" to="108773870#1" fromLane="0" toLane="0"/>

    <connection from="-108773872#0" to="108773874#2" fromLane="0" toLane="0"/>
    <connection from="-108773872#0" to="-108773874#1" fromLane="0" toLane="0"/>
    <connection from="-108773872#0" to="108773872#0" fromLane="0" toLane="0"/>

    <connection from="-108773872#1" to="-108773872#0" fromLane="0" toLane="0"/>

    <connection from="-108773872#2" to="370259824" fromLane="0" toLane="0"/>
    <connection from="-108773872#2" to="-108773872#1" fromLane="0" toLane="0"/>

    <connection from="-108773873#0" to="211158606#5" fromLane="0" toLane="0"/>
    <connection from="-108773873#0" to="-211158606#4" fromLane="0" toLane="0"/>
    <connection from="-108773873#0" to="108773873#0" fromLane="0" toLane="0"/>

    <connection from="-108773873#1" to="930904748#0" fromLane="0" toLane="0"/>
    <connection from="-108773873#1" to="295686852" fromLane="0" toLane="0"/>
    <connection from="-108773873#1" to="-108773873#0" fromLane="0" toLane="0"/>
    <connection from="-108773873#1" to="108773873#1" fromLane="0" toLane="0"/>

    <connection from="-108773873#2" to="-108773873#1" fromLane="0" toLane="0"/>
    <connection from="-108773873#2" to="295686854" fromLane="0" toLane="0"/>
    <connection from="-108773873#2" to="295686855#0" fromLane="0" toLane="0"/>
    <connection from="-108773873#2" to="108773873#2" fromLane="0" toLane="0"/>

    <connection from="-108773874#0" to="108773874#0" fromLane="0" toLane="0"/>

    <connection from="-108773874#1" to="618370035#2" fromLane="0" toLane="0"/>
    <connection from="-108773874#1" to="-108773874#0" fromLane="0" toLane="0"/>
    <connection from="-108773874#1" to="-618370035#1" fromLane="0" toLane="0"/>
    <connection from="-108773874#1" to="108773874#1" fromLane="0" toLane="0"/>

    <connection from="-108773874#2" to="-108773874#1" fromLane="0" toLane="0"/>
    <connection from="-108773874#2" to="108773872#0" fromLane="0" toLane="0"/>
    <connection from="-108773874#2" to="108773874#2" fromLane="0" toLane="0"/>

    <connection from="-108773874#3" to="-108773874#2" fromLane="0" toLane="0"/>

    <connection from="-108773875#0" to="-930904749" fromLane="0" toLane="0"/>
    <connection from="-108773875#0" to="699321515" fromLane="0" toLane="0"/>
    <connection from="-108773875#0" to="295686851#0" fromLane="0" toLane="0"/>
    <connection from="-108773875#0" to="108773875#0" fromLane="0" toLane="0"/>

    <connection from="-108773875#1" to="-152209319#1" fromLane="0" toLane="0"/>
    <connection from="-108773875#1" to="-108773875#0" fromLane="0" toLane="0"/>
    <connection from="-108773875#1" to="108773875#1" fromLane="0" toLane="0"/>

    <connection from="-108773875#2" to="-108773875#1" fromLane="0" toLane="0"/>
    <connection from="-108773875#2" to="108773875#2" fromLane="0" toLane="0"/>

    <connection from="-108773876#0" to="-152209319#0" fromLane="0" toLane="0"/>
    <connection from="-108773876#0" to="108773870#0" fromLane="0" toLane="0"/>
    <connection from="-108773876#0" to="152209319#1" fromLane="0" toLane="0"/>
    <connection from="-108773876#0" to="108773876#0" fromLane="0" toLane="0"/>

    <connection from="-108773876#1" to="-108773876#0" fromLane="0" toLane="0"/>
    <connection from="-108773876#1" to="108773876#1" fromLane="0" toLane="0"/>

    <connection from="-108773876#2" to="-108773876#1" fromLane="0" toLane="0"/>
    <connection from="-108773876#2" to="108773864#0" fromLane="0" toLane="0"/>
    <connection from="-108773876#2" to="108773876#2" fromLane="0" toLane="0"/>

    <connection from="-108773877#0" to="108773860#0" fromLane="0" toLane="0"/>
    <connection from="-108773877#0" to="-39517938#4" fromLane="0" toLane="0"/>
    <connection from="-108773877#0" to="108773877#0" fromLane="0" toLane="0"/>

    <connection from="-108773877#1" to="-108773877#0" fromLane="0" toLane="0"/>
    <connection from="-108773877#1" to="1260661089" fromLane="0" toLane="0"/>
    <connection from="-108773877#1" to="108773877#1" fromLane="0" toLane="0"/>

    <connection from="-108773877#2" to="-108773877#1" fromLane="0" toLane="0"/>
    <connection from="-108773877#2" to="39518102#0" fromLane="0" toLane="0"/>
    <connection from="-108773877#2" to="108773877#2" fromLane="0" toLane="0"/>

    <connection from="-108773878#0" to="-456246561#2" fromLane="0" toLane="0"/>
    <connection from="-108773878#0" to="-39518100#3" fromLane="0" toLane="0"/>
    <connection from="-108773878#0" to="108773878#0" fromLane="0" toLane="0"/>

    <connection from="-108773878#1" to="456246571" fromLane="0" toLane="0"/>
    <connection from="-108773878#1" to="-108773878#0" fromLane="0" toLane="0"/>
    <connection from="-108773878#1" to="108773878#1" fromLane="0" toLane="0"/>

    <connection from="-108773881" to="39518997" fromLane="1" toLane="1"/>

    <connection from="-108773882" to="-108773864#1" fromLane="0" toLane="0"/>
    <connection from="-108773882" to="108773864#2" fromLane="0" toLane="0"/>
    <connection from="-108773882" to="108773882" fromLane="0" toLane="0"/>

    <connection from="-108773883#0" to="39517938#0" fromLane="0" toLane="0"/>
    <connection from="-108773883#0" to="-39518999#4" fromLane="0" toLane="0"/>
    <connection from="-108773883#0" to="108773883#0" fromLane="0" toLane="0"/>

    <connection from="-108773883#1" to="-108773883#0" fromLane="0" toLane="0"/>
    <connection from="-108773883#1" to="-799284363" fromLane="0" toLane="0"/>

    <connection from="-108773883#2" to="456246567" fromLane="0" toLane="0"/>
    <connection from="-108773883#2" to="-108773883#1" fromLane="0" toLane="0"/>
    <connection from="-108773883#2" to="108773883#2" fromLane="0" toLane="0"/>

    <connection from="-108773883#3" to="-108773883#2" fromLane="0" toLane="0"/>
    <connection from="-108773883#3" to="108773883#3" fromLane="0" toLane="0"/>

    <connection from="-108773883#4" to="299015072#0" fromLane="0" toLane="0"/>
    <connection from="-108773883#4" to="-108773883#3" fromLane="0" toLane="0"/>
    <connection from="-108773883#4" to="108773883#4" fromLane="0" toLane="0"/>

    <connection from="-108773883#5" to="-424281663#1" fromLane="0" toLane="0"/>
    <connection from="-108773883#5" to="-108773883#4" fromLane="0" toLane="0"/>

    <connection from="-108773883#6" to="-1261770433" fromLane="0" toLane="0"/>
    <connection from="-108773883#6" to="-108773883#5" fromLane="0" toLane="0"/>

    <connection from="-108773883#7" to="-108773883#6" fromLane="0" toLane="0"/>
    <connection from="-108773883#7" to="108773883#7" fromLane="0" toLane="0"/>
