<?xml version="1.0" encoding="UTF-8"?>

<!-- generated on 2025-04-09 00:36:58 by Eclipse SUMO netconvert Version 1.19.0
<configuration xmlns:xsi="http://www.w3.org/2001/XMLSchema-instance" xsi:noNamespaceSchemaLocation="http://sumo.dlr.de/xsd/netconvertConfiguration.xsd">

    <input>
        <sumo-net-file value="coulommiers/coulommiers.net.xml"/>
    </input>

    <output>
        <plain-output-prefix value="coulommiers/coulommiers"/>
    </output>

    <processing>
        <geometry.min-radius.fix.railways value="false"/>
        <geometry.max-grade.fix value="false"/>
        <offset.disable-normalization value="true"/>
        <lefthand value="0"/>
    </processing>

    <tls_building>
        <tls.ignore-internal-junction-jam value="1"/>
    </tls_building>

    <junctions>
        <no-turnarounds value="true"/>
        <junctions.corner-detail value="5"/>
        <junctions.limit-turn-speed value="5.50"/>
        <rectangular-lane-cut value="0"/>
    </junctions>

    <pedestrian>
        <walkingareas value="0"/>
    </pedestrian>

</configuration>
-->

<nodes version="1.16" xmlns:xsi="http://www.w3.org/2001/XMLSchema-instance" xsi:noNamespaceSchemaLocation="http://sumo.dlr.de/xsd/nodes_file.xsd">
    <location netOffset="-501380.46,-5404724.96" convBoundary="0.00,0.00,7462.73,8042.35" origBoundary="2.830881,48.795483,3.150761,48.900875" projParameter="+proj=utm +zone=31 +ellps=WGS84 +datum=WGS84 +units=m +no_defs"/>

    <node id="10118331475" x="5734.26" y="846.35" type="priority"/>
    <node id="10118331478" x="5744.91" y="815.54" type="priority"/>
    <node id="10118331479" x="5667.74" y="804.86" type="right_before_left"/>
    <node id="10118331480" x="5725.37" y="825.61" type="right_before_left"/>
    <node id="10118331481" x="5720.07" y="841.34" type="right_before_left"/>
    <node id="10118331482" x="5730.51" y="810.22" type="right_before_left"/>
    <node id="10118331483" x="5740.22" y="828.59" type="right_before_left"/>
    <node id="10118331484" x="5726.10" y="823.43" type="priority"/>
    <node id="10118331485" x="5668.81" y="802.17" type="priority"/>
    <node id="10118331486" x="5660.35" y="798.98" type="dead_end"/>
    <node id="10175446859" x="5738.80" y="1024.76" type="priority" fringe="inner">
        <param key="buffer_stop" value="true"/>
    </node>
    <node id="10175446862" x="5126.41" y="829.41" type="priority"/>
    <node id="10175446865" x="5082.24" y="780.43" type="right_before_left"/>
    <node id="10175446868" x="5093.87" y="793.33" type="right_before_left"/>
    <node id="10304951587" x="5971.49" y="740.07" type="right_before_left"/>
    <node id="10305035992" x="5696.84" y="987.10" type="right_before_left"/>
    <node id="10305035993" x="5688.31" y="997.66" type="right_before_left"/>
    <node id="10305035994" x="5683.80" y="993.53" type="priority" fringe="inner">
        <param key="buffer_stop" value="true"/>
    </node>
    <node id="10305035995" x="5692.19" y="1001.29" type="priority" fringe="inner">
        <param key="buffer_stop" value="true"/>
    </node>
    <node id="10305048583" x="5437.60" y="1088.68" type="right_before_left"/>
    <node id="10305048584" x="5420.34" y="1062.56" type="priority"/>
    <node id="10305048585" x="5451.60" y="1079.44" type="right_before_left"/>
    <node id="10305048586" x="5434.52" y="1053.64" type="priority"/>
    <node id="10305048587" x="5463.74" y="1071.42" type="right_before_left"/>
    <node id="10305048588" x="5447.25" y="1045.29" type="priority"/>
    <node id="10305048589" x="5477.39" y="1062.40" type="right_before_left"/>
    <node id="10305048590" x="5460.11" y="1036.18" type="priority"/>
    <node id="10305048591" x="5492.01" y="1052.74" type="right_before_left"/>
    <node id="10305048592" x="5477.10" y="1030.69" type="priority"/>
    <node id="10305048593" x="5505.84" y="1043.61" type="right_before_left"/>
    <node id="10305048594" x="5491.15" y="1020.72" type="priority"/>
    <node id="10305048595" x="5518.37" y="1035.34" type="right_before_left"/>
    <node id="10305048596" x="5503.50" y="1012.61" type="priority"/>
    <node id="10305048597" x="5531.95" y="1026.37" type="right_before_left"/>
    <node id="10305048598" x="5517.05" y="1004.01" type="priority"/>
    <node id="10305048599" x="5545.87" y="1017.17" type="right_before_left"/>
    <node id="10305048600" x="5530.66" y="994.21" type="priority"/>
    <node id="10942060285" x="4714.65" y="1383.99" type="priority"/>
    <node id="10942060287" x="4715.53" y="1377.60" type="priority"/>
    <node id="10942060288" x="4716.53" y="1373.88" type="dead_end"/>
    <node id="10942060290" x="4728.71" y="1341.23" type="priority"/>
    <node id="10942060292" x="4738.94" y="1310.39" type="priority"/>
    <node id="10942060294" x="4746.91" y="1288.90" type="dead_end"/>
    <node id="10942060298" x="4755.65" y="1283.59" type="dead_end"/>
    <node id="10942060301" x="4758.49" y="1287.31" type="priority"/>
    <node id="10942107717" x="4976.43" y="1505.52" type="right_before_left"/>
    <node id="10942107718" x="4973.38" y="1513.08" type="priority"/>
    <node id="10942107731" x="5498.63" y="1257.20" type="priority"/>
    <node id="10942107743" x="5429.23" y="1443.02" type="priority"/>
    <node id="10942107745" x="5399.54" y="1387.75" type="priority"/>
    <node id="10942107758" x="4917.97" y="1192.79" type="priority" fringe="inner">
        <param key="buffer_stop" value="true"/>
    </node>
    <node id="10942137984" x="4709.48" y="1399.67" type="priority"/>
    <node id="10942137987" x="4165.21" y="1448.56" type="priority"/>
    <node id="10942137989" x="4141.10" y="1439.79" type="priority"/>
    <node id="10942137996" x="4238.67" y="1235.95" type="priority"/>
    <node id="10942137999" x="4229.73" y="1225.93" type="right_before_left"/>
    <node id="10942147011" x="4528.44" y="948.24" type="priority"/>
    <node id="10942147012" x="4543.22" y="975.88" type="priority"/>
    <node id="10942147017" x="4907.83" y="871.47" type="priority"/>
    <node id="11070294235" x="5820.62" y="664.78" type="right_before_left"/>
    <node id="11070294236" x="5822.45" y="651.16" type="right_before_left"/>
    <node id="11070294237" x="5790.40" y="724.96" type="priority"/>
    <node id="11070296498" x="5126.00" y="1374.72" type="priority"/>
    <node id="11070296500" x="5109.56" y="1393.89" type="right_before_left"/>
    <node id="11070296501" x="5089.77" y="1383.66" type="priority" fringe="inner">
        <param key="buffer_stop" value="true"/>
    </node>
    <node id="11070296502" x="5122.11" y="1400.37" type="priority" fringe="inner">
        <param key="buffer_stop" value="true"/>
    </node>
    <node id="11070305544" x="5130.80" y="1207.86" type="priority"/>
    <node id="11070305545" x="5176.77" y="1174.57" type="priority" fringe="inner">
        <param key="buffer_stop" value="true"/>
    </node>
    <node id="11070311219" x="5966.78" y="724.99" type="right_before_left"/>
    <node id="11070311226" x="5944.31" y="774.10" type="right_before_left"/>
    <node id="11070311234" x="5876.35" y="751.55" type="right_before_left"/>
    <node id="11070311235" x="5916.63" y="689.93" type="right_before_left"/>
    <node id="11070311236" x="5894.48" y="757.89" type="right_before_left"/>
    <node id="11070311237" x="5933.18" y="701.50" type="right_before_left"/>
    <node id="11070311238" x="5912.37" y="764.15" type="right_before_left"/>
    <node id="11070311239" x="5949.49" y="712.90" type="right_before_left"/>
    <node id="11070311240" x="5988.88" y="741.95" type="right_before_left"/>
    <node id="11070311241" x="5977.56" y="755.95" type="priority"/>
    <node id="11070311242" x="5969.91" y="793.26" type="right_before_left"/>
    <node id="11070311243" x="6003.10" y="754.25" type="right_before_left"/>
    <node id="11070311244" x="5989.09" y="799.48" type="right_before_left"/>
    <node id="11070311245" x="6017.79" y="766.93" type="right_before_left"/>
    <node id="11070311246" x="6032.22" y="780.24" type="right_before_left"/>
    <node id="11070311247" x="6009.02" y="805.96" type="right_before_left"/>
    <node id="11070311248" x="6029.20" y="812.51" type="right_before_left"/>
    <node id="11070311249" x="6046.59" y="794.42" type="right_before_left"/>
    <node id="11070311252" x="5981.66" y="735.96" type="right_before_left"/>
    <node id="11070311255" x="5973.21" y="729.64" type="right_before_left"/>
    <node id="11070321514" x="4753.17" y="1302.35" type="priority"/>
    <node id="11070321515" x="4796.60" y="1317.13" type="priority"/>
    <node id="11070374165" x="5586.63" y="1430.39" type="priority"/>
    <node id="11070374167" x="5581.16" y="1469.33" type="right_before_left"/>
    <node id="11070374169" x="5478.41" y="1441.84" type="right_before_left"/>
    <node id="11070374174" x="5457.44" y="1435.20" type="priority" fringe="inner">
        <param key="buffer_stop" value="true"/>
    </node>
    <node id="11070374175" x="5578.25" y="1488.90" type="priority"/>
    <node id="11073352037" x="4670.87" y="1120.67" type="priority"/>
    <node id="11073352038" x="4698.67" y="1094.22" type="priority"/>
    <node id="11073408814" x="4002.62" y="1842.80" type="right_before_left"/>
    <node id="11073408818" x="4074.76" y="1913.33" type="right_before_left"/>
    <node id="11073408819" x="4033.90" y="1922.15" type="right_before_left"/>
    <node id="11073408820" x="4071.17" y="1905.32" type="right_before_left"/>
    <node id="11073408821" x="4027.67" y="1908.33" type="right_before_left"/>
    <node id="11073408822" x="4064.78" y="1891.09" type="right_before_left"/>
    <node id="11073408823" x="4020.90" y="1893.31" type="right_before_left"/>
    <node id="11073408824" x="4058.01" y="1876.01" type="right_before_left"/>
    <node id="11073408825" x="4014.18" y="1868.44" type="right_before_left"/>
    <node id="11073408826" x="4047.64" y="1852.89" type="right_before_left"/>
    <node id="11073408827" x="4007.61" y="1853.87" type="right_before_left"/>
    <node id="11073408828" x="4041.07" y="1838.27" type="right_before_left"/>
    <node id="11073408829" x="4002.98" y="1843.61" type="right_before_left"/>
    <node id="11073408830" x="4036.48" y="1828.04" type="right_before_left"/>
    <node id="11073408831" x="3996.67" y="1829.35" type="right_before_left"/>
    <node id="11073408832" x="3968.81" y="1857.67" type="right_before_left"/>
    <node id="11073408833" x="3962.58" y="1842.98" type="right_before_left"/>
    <node id="11073408854" x="4755.65" y="2839.85" type="priority"/>
    <node id="11073408862" x="4759.03" y="2779.36" type="priority"/>
    <node id="11073417342" x="5546.42" y="2604.20" type="priority"/>
    <node id="11073417343" x="5559.11" y="2563.72" type="priority"/>
    <node id="11073417344" x="5563.68" y="2608.65" type="priority"/>
    <node id="11073417345" x="5575.85" y="2569.36" type="priority"/>
    <node id="11073417348" x="5093.65" y="2236.71" type="priority"/>
    <node id="11073417349" x="5096.24" y="2220.68" type="right_before_left"/>
    <node id="11073417350" x="5124.98" y="2225.69" type="right_before_left"/>
    <node id="11073430424" x="5700.91" y="652.80" type="right_before_left"/>
    <node id="11073465263" x="6042.33" y="2329.51" type="dead_end"/>
    <node id="11073465264" x="6065.94" y="2161.52" type="dead_end"/>
    <node id="11073465265" x="6173.82" y="2345.08" type="dead_end"/>
    <node id="11073465270" x="6129.11" y="2187.26" type="dead_end"/>
    <node id="11073465273" x="6064.46" y="2172.04" type="dead_end"/>
    <node id="11073465274" x="6022.33" y="2308.87" type="dead_end"/>
    <node id="11073465275" x="6044.80" y="2311.85" type="dead_end"/>
    <node id="11073465276" x="6175.80" y="2330.71" type="dead_end"/>
    <node id="11073465277" x="6195.60" y="2333.29" type="dead_end"/>
    <node id="11073465278" x="6055.14" y="2238.33" type="dead_end"/>
    <node id="11073465280" x="6185.65" y="2259.09" type="dead_end"/>
    <node id="11073465281" x="6108.67" y="2336.97" type="dead_end"/>
    <node id="11073465282" x="6110.85" y="2321.36" type="dead_end"/>
    <node id="11073465283" x="6114.72" y="2291.74" type="dead_end"/>
    <node id="11073465286" x="6122.65" y="2285.89" type="dead_end"/>
    <node id="11073465289" x="6116.84" y="2277.87" type="dead_end"/>
    <node id="11073465292" x="6109.08" y="2283.57" type="dead_end"/>
    <node id="11073465296" x="6123.97" y="2222.61" type="dead_end"/>
    <node id="11073465299" x="6132.10" y="2216.63" type="dead_end"/>
    <node id="11073465302" x="6126.62" y="2208.65" type="dead_end"/>
    <node id="11073467105" x="6118.60" y="2214.66" type="dead_end"/>
    <node id="11073467108" x="6027.41" y="2272.01" type="dead_end"/>
    <node id="11073467109" x="6049.92" y="2275.43" type="dead_end"/>
    <node id="11073467110" x="6180.83" y="2294.13" type="dead_end"/>
    <node id="11073467111" x="6201.03" y="2296.85" type="dead_end"/>
    <node id="11073467112" x="6059.68" y="2205.98" type="dead_end"/>
    <node id="11073467113" x="6190.40" y="2224.55" type="dead_end"/>
    <node id="11118812607" x="5565.49" y="2696.19" type="priority"/>
    <node id="11119085597" x="5116.39" y="2952.73" type="priority"/>
    <node id="11119085598" x="5121.54" y="2961.53" type="priority"/>
    <node id="11307762783" x="6531.53" y="2200.76" type="priority"/>
    <node id="11307762784" x="6446.29" y="2201.49" type="priority"/>
    <node id="11307762791" x="6512.22" y="2188.35" type="priority"/>
    <node id="11307763820" x="4963.18" y="1188.75" type="priority"/>
    <node id="11307763821" x="4965.07" y="1155.26" type="priority" fringe="inner">
        <param key="buffer_stop" value="true"/>
    </node>
    <node id="11345871514" x="5345.23" y="562.82" type="priority"/>
    <node id="11345871516" x="5504.03" y="528.49" type="priority"/>
    <node id="11345871517" x="5556.69" y="499.94" type="priority"/>
    <node id="11547301617" x="4997.48" y="1037.94" type="priority"/>
    <node id="11547301618" x="5051.82" y="871.13" type="priority"/>
    <node id="11547313337" x="4285.76" y="1099.01" type="priority"/>
    <node id="11547329003" x="4082.74" y="2802.71" type="priority"/>
    <node id="11547329015" x="4189.45" y="2648.38" type="priority"/>
    <node id="11638558195" x="5629.01" y="643.28" type="right_before_left"/>
    <node id="11638558202" x="5757.12" y="638.81" type="priority"/>
    <node id="11638558203" x="5752.38" y="651.47" type="priority"/>
    <node id="11638558204" x="5745.34" y="670.22" type="priority"/>
    <node id="11638558205" x="5763.22" y="622.54" type="right_before_left"/>
    <node id="11638564192" x="5351.19" y="1070.39" type="right_before_left"/>
    <node id="11638564193" x="5335.04" y="1081.24" type="priority"/>
    <node id="11638564194" x="5382.75" y="1118.62" type="priority" fringe="inner">
        <param key="buffer_stop" value="true"/>
    </node>
    <node id="11638564196" x="5437.51" y="1202.69" type="right_before_left"/>
    <node id="11638564199" x="5465.87" y="1274.33" type="priority"/>
    <node id="11638564203" x="5386.98" y="1125.39" type="priority" fringe="inner">
        <param key="buffer_stop" value="true"/>
    </node>
    <node id="11638564204" x="5419.68" y="1115.42" type="priority"/>
    <node id="11638564205" x="5392.11" y="1133.25" type="right_before_left"/>
    <node id="11638564218" x="5506.28" y="845.33" type="priority"/>
    <node id="11638564221" x="5513.32" y="895.65" type="right_before_left"/>
    <node id="11638687463" x="3988.89" y="1911.03" type="right_before_left"/>
    <node id="11638687464" x="3963.77" y="1922.44" type="priority"/>
    <node id="11638687466" x="3984.37" y="1901.55" type="priority"/>
    <node id="11696768019" x="3981.57" y="3440.72" type="priority"/>
    <node id="11696768021" x="3987.71" y="3439.86" type="priority"/>
    <node id="11696768056" x="3784.80" y="716.60" type="priority"/>
    <node id="11702233262" x="4762.24" y="1305.44" type="priority"/>
    <node id="11702265675" x="4493.43" y="1603.02" type="right_before_left"/>
    <node id="11702265678" x="4410.85" y="1580.97" type="priority" fringe="inner">
        <param key="buffer_stop" value="true"/>
    </node>
    <node id="11702265708" x="4052.70" y="2922.17" type="priority" fringe="inner">
        <param key="buffer_stop" value="true"/>
    </node>
    <node id="1170353698" x="4738.37" y="1286.73" type="dead_end"/>
    <node id="1170353798" x="5131.38" y="1238.75" type="dead_end"/>
    <node id="11704658095" x="5622.19" y="1237.51" type="priority" fringe="inner">
        <param key="buffer_stop" value="true"/>
    </node>
    <node id="11704658098" x="5563.31" y="1228.90" type="priority" fringe="inner">
        <param key="buffer_stop" value="true"/>
    </node>
    <node id="11704658101" x="5589.61" y="1223.33" type="right_before_left"/>
    <node id="11704658104" x="5651.32" y="1175.40" type="priority" fringe="inner">
        <param key="buffer_stop" value="true"/>
    </node>
    <node id="11704663485" x="4091.57" y="1723.86" type="priority"/>
    <node id="11705305687" x="5159.76" y="697.16" type="priority" fringe="inner">
        <param key="buffer_stop" value="true"/>
    </node>
    <node id="11705305688" x="5270.89" y="700.87" type="priority" fringe="inner">
        <param key="buffer_stop" value="true"/>
    </node>
    <node id="11705305689" x="5247.10" y="710.57" type="priority" fringe="inner">
        <param key="buffer_stop" value="true"/>
    </node>
    <node id="11705305690" x="5296.76" y="691.68" type="priority" fringe="inner">
        <param key="buffer_stop" value="true"/>
    </node>
    <node id="11705305691" x="5277.20" y="699.17" type="priority" fringe="inner">
        <param key="buffer_stop" value="true"/>
    </node>
    <node id="11705305698" x="5251.11" y="906.72" type="priority"/>
    <node id="11705305704" x="5384.66" y="868.87" type="right_before_left"/>
    <node id="11705305747" x="4302.44" y="383.11" type="priority"/>
    <node id="11705305750" x="4890.37" y="782.73" type="priority" fringe="inner">
        <param key="buffer_stop" value="true"/>
    </node>
    <node id="11705305755" x="4833.02" y="813.89" type="priority" fringe="inner">
        <param key="buffer_stop" value="true"/>
    </node>
    <node id="11705305756" x="4768.08" y="782.22" type="priority" fringe="inner">
        <param key="buffer_stop" value="true"/>
    </node>
    <node id="11705305757" x="4765.26" y="817.45" type="priority" fringe="inner">
        <param key="buffer_stop" value="true"/>
    </node>
    <node id="11705305758" x="4800.93" y="802.16" type="priority"/>
    <node id="11705305759" x="4833.82" y="804.26" type="right_before_left"/>
    <node id="11705305760" x="4766.66" y="799.96" type="right_before_left"/>
    <node id="11705308493" x="4355.90" y="1287.03" type="priority"/>
    <node id="11707699228" x="4299.48" y="421.90" type="priority"/>
    <node id="11710994335" x="4915.84" y="2344.28" type="priority" fringe="inner">
        <param key="buffer_stop" value="true"/>
    </node>
    <node id="11710994345" x="4754.59" y="2647.02" type="priority"/>
    <node id="11710994363" x="4923.58" y="2884.80" type="priority"/>
    <node id="11710994583" x="5360.33" y="3121.06" type="right_before_left"/>
    <node id="11710994586" x="5444.57" y="3033.58" type="priority"/>
    <node id="11710994587" x="5453.78" y="3027.85" type="priority"/>
    <node id="11710994590" x="5388.80" y="3125.49" type="priority"/>
    <node id="11710994595" x="5667.47" y="3354.77" type="right_before_left"/>
    <node id="11710994637" x="6068.54" y="1220.41" type="priority" fringe="inner">
        <param key="buffer_stop" value="true"/>
    </node>
    <node id="11710994639" x="6047.88" y="1207.58" type="priority"/>
    <node id="11710994640" x="6031.97" y="1128.38" type="right_before_left"/>
    <node id="11710994641" x="6045.70" y="1128.40" type="priority"/>
    <node id="11710994652" x="6033.27" y="1191.02" type="right_before_left"/>
    <node id="11710994653" x="6047.44" y="1191.42" type="priority"/>
    <node id="11710994656" x="5968.53" y="965.60" type="priority"/>
    <node id="11710994657" x="5975.65" y="977.19" type="right_before_left"/>
    <node id="11710994663" x="6024.29" y="1054.72" type="right_before_left"/>
    <node id="11710994665" x="6027.27" y="1115.50" type="right_before_left"/>
    <node id="11710994666" x="6037.70" y="1115.23" type="priority" fringe="inner">
        <param key="buffer_stop" value="true"/>
    </node>
    <node id="11710994669" x="5979.00" y="1055.15" type="right_before_left"/>
    <node id="11710994670" x="6043.66" y="1054.55" type="priority"/>
    <node id="11710994679" x="5969.24" y="1360.59" type="priority"/>
    <node id="11710994684" x="5807.52" y="1536.23" type="priority" fringe="inner">
        <param key="buffer_stop" value="true"/>
    </node>
    <node id="11710994687" x="5775.96" y="1502.70" type="right_before_left"/>
    <node id="11710994688" x="5656.95" y="1396.72" type="priority" fringe="inner">
        <param key="buffer_stop" value="true"/>
    </node>
    <node id="11710994689" x="5658.64" y="1381.40" type="priority" fringe="inner">
        <param key="buffer_stop" value="true"/>
    </node>
    <node id="11710994690" x="5684.20" y="1384.41" type="right_before_left"/>
    <node id="11710994691" x="5659.74" y="1371.19" type="priority" fringe="inner">
        <param key="buffer_stop" value="true"/>
    </node>
    <node id="11710994694" x="5678.71" y="1399.88" type="right_before_left"/>
    <node id="11710994696" x="5746.66" y="1472.26" type="right_before_left"/>
    <node id="11710994697" x="5670.35" y="1463.10" type="right_before_left"/>
    <node id="11710994698" x="5667.46" y="1494.60" type="priority"/>
    <node id="11710994699" x="5694.98" y="1378.40" type="priority" fringe="inner">
        <param key="buffer_stop" value="true"/>
    </node>
    <node id="11710994707" x="5744.66" y="1492.10" type="priority"/>
    <node id="11710994708" x="5683.71" y="1538.35" type="right_before_left"/>
    <node id="11710994710" x="5662.95" y="1550.22" type="right_before_left"/>
    <node id="11710994712" x="5551.42" y="1450.88" type="right_before_left"/>
    <node id="11710994722" x="5497.38" y="1434.90" type="right_before_left"/>
    <node id="11710994723" x="5509.15" y="1551.95" type="priority" fringe="inner">
        <param key="buffer_stop" value="true"/>
    </node>
    <node id="11710994726" x="5454.83" y="1363.96" type="priority"/>
    <node id="11710994728" x="5490.04" y="1394.05" type="right_before_left"/>
    <node id="11710994729" x="5444.86" y="1411.75" type="right_before_left"/>
    <node id="11710994731" x="5419.35" y="1385.92" type="priority"/>
    <node id="11710994744" x="5194.95" y="1384.56" type="priority" fringe="inner">
        <param key="buffer_stop" value="true"/>
    </node>
    <node id="11710994745" x="4890.51" y="1451.76" type="priority" fringe="inner">
        <param key="buffer_stop" value="true"/>
    </node>
    <node id="11710994747" x="4899.48" y="1435.48" type="right_before_left"/>
    <node id="11710994753" x="5015.51" y="1323.29" type="priority" fringe="inner">
        <param key="buffer_stop" value="true"/>
    </node>
    <node id="11710994754" x="4996.11" y="1359.90" type="right_before_left"/>
    <node id="11710994755" x="5003.55" y="1363.92" type="priority" fringe="inner">
        <param key="buffer_stop" value="true"/>
    </node>
    <node id="11710994766" x="5005.94" y="1079.39" type="priority" fringe="inner">
        <param key="buffer_stop" value="true"/>
    </node>
    <node id="11710994778" x="5278.41" y="1020.52" type="right_before_left"/>
    <node id="11710994780" x="5304.79" y="985.59" type="right_before_left"/>
    <node id="11710994782" x="5306.67" y="1024.97" type="right_before_left"/>
    <node id="11710994783" x="5283.59" y="954.91" type="priority" fringe="inner">
        <param key="buffer_stop" value="true"/>
    </node>
    <node id="11710994784" x="5313.47" y="998.15" type="right_before_left"/>
    <node id="11710994786" x="5314.77" y="1038.95" type="right_before_left"/>
    <node id="11710994787" x="5261.19" y="995.14" type="priority" fringe="inner">
        <param key="buffer_stop" value="true"/>
    </node>
    <node id="11710994789" x="5325.92" y="1031.79" type="right_before_left"/>
    <node id="11710994794" x="5287.00" y="1229.54" type="priority" fringe="inner">
        <param key="buffer_stop" value="true"/>
    </node>
    <node id="11710994797" x="5402.73" y="1287.52" type="priority" fringe="inner">
        <param key="buffer_stop" value="true"/>
    </node>
    <node id="11710994808" x="5266.28" y="1267.61" type="right_before_left"/>
    <node id="11710994812" x="5242.04" y="1281.84" type="priority"/>
    <node id="11710994817" x="4502.43" y="1002.64" type="priority"/>
    <node id="11710994820" x="4529.01" y="973.22" type="priority"/>
    <node id="11717177671" x="5530.98" y="3012.73" type="dead_end"/>
    <node id="11717177690" x="5275.52" y="2192.25" type="priority" fringe="inner">
        <param key="buffer_stop" value="true"/>
    </node>
    <node id="11717177691" x="5270.17" y="2218.15" type="priority" fringe="inner">
        <param key="buffer_stop" value="true"/>
    </node>
    <node id="11724063659" x="5577.70" y="2616.04" type="priority"/>
    <node id="11724072980" x="5617.25" y="2627.03" type="priority"/>
    <node id="11724072987" x="5626.72" y="2652.86" type="priority" fringe="inner">
        <param key="buffer_stop" value="true"/>
    </node>
    <node id="11724072988" x="5686.01" y="2670.27" type="priority"/>
    <node id="11724072989" x="5646.57" y="2679.53" type="priority" fringe="inner">
        <param key="buffer_stop" value="true"/>
    </node>
    <node id="11724073006" x="5702.27" y="2526.48" type="priority"/>
    <node id="11724073007" x="5710.14" y="2556.28" type="priority"/>
    <node id="11724073008" x="5698.52" y="2552.83" type="right_before_left"/>
    <node id="11724073012" x="5710.49" y="2579.55" type="priority"/>
    <node id="11724073014" x="5530.08" y="2599.98" type="priority"/>
    <node id="1232869649" x="6302.86" y="3614.80" type="priority"/>
    <node id="1232869677" x="5303.20" y="2914.52" type="priority"/>
    <node id="1232869685" x="5697.09" y="3135.48" type="priority"/>
    <node id="1232869687" x="5434.09" y="2945.65" type="priority"/>
    <node id="1232869704" x="5542.82" y="2962.04" type="priority"/>
    <node id="1232869763" x="5628.68" y="3446.92" type="right_before_left"/>
    <node id="1232869773" x="5721.75" y="3207.16" type="priority"/>
    <node id="1232869778" x="5679.77" y="3104.19" type="priority"/>
    <node id="1232869796" x="5709.69" y="3214.21" type="right_before_left"/>
    <node id="1232869800" x="5312.03" y="2898.13" type="priority"/>
    <node id="1232869804" x="5524.21" y="2959.28" type="priority"/>
    <node id="1232869816" x="5794.45" y="3458.73" type="priority"/>
    <node id="1232869844" x="5779.50" y="3460.20" type="right_before_left"/>
    <node id="1232869869" x="5575.11" y="2987.86" type="priority"/>
    <node id="1232869872" x="5648.52" y="3073.14" type="priority"/>
    <node id="1232869888" x="5525.69" y="2970.99" type="priority"/>
    <node id="1232869890" x="5642.28" y="3436.72" type="right_before_left"/>
    <node id="1232869895" x="5309.90" y="2895.30" type="priority"/>
    <node id="1232869898" x="5678.03" y="3091.94" type="priority"/>
    <node id="1232869958" x="5669.36" y="3089.89" type="priority"/>
    <node id="1232869973" x="5311.53" y="2909.45" type="priority"/>
    <node id="1232869983" x="5292.69" y="2909.53" type="priority"/>
    <node id="1232869985" x="5637.61" y="3389.80" type="right_before_left"/>
    <node id="1232870016" x="5535.99" y="2954.57" type="priority"/>
    <node id="1232870019" x="5532.57" y="2974.13" type="priority"/>
    <node id="1232870023" x="5437.39" y="2934.54" type="priority"/>
    <node id="1232870029" x="5689.52" y="3469.69" type="right_before_left"/>
    <node id="1232870039" x="5724.52" y="3460.43" type="right_before_left"/>
    <node id="1232870043" x="5295.13" y="2894.56" type="priority"/>
    <node id="1232870047" x="5738.76" y="3314.54" type="right_before_left"/>
    <node id="1232870051" x="5651.98" y="3391.00" type="right_before_left"/>
    <node id="1232870072" x="6166.92" y="3718.89" type="priority"/>
    <node id="1232870107" x="5610.25" y="3382.70" type="priority"/>
    <node id="1232870118" x="5457.89" y="2858.36" type="priority"/>
    <node id="1232870126" x="6301.90" y="3629.56" type="priority"/>
    <node id="1232870127" x="5657.94" y="3461.44" type="right_before_left"/>
    <node id="1232870152" x="6112.22" y="3747.23" type="priority"/>
    <node id="1236534651" x="4158.35" y="2648.41" type="priority"/>
    <node id="1236534666" x="4328.23" y="2188.33" type="priority" fringe="inner">
        <param key="buffer_stop" value="true"/>
    </node>
    <node id="1236534687" x="4350.21" y="2123.49" type="priority"/>
    <node id="1236534693" x="4284.08" y="2101.39" type="priority"/>
    <node id="1236534708" x="4203.03" y="2016.58" type="priority" fringe="inner">
        <param key="buffer_stop" value="true"/>
    </node>
    <node id="1236534714" x="4248.28" y="2206.80" type="priority" fringe="inner">
        <param key="buffer_stop" value="true"/>
    </node>
    <node id="1236534718" x="5573.37" y="3233.97" type="priority"/>
    <node id="1236534721" x="5669.72" y="3108.34" type="priority"/>
    <node id="1236534744" x="4207.92" y="2076.41" type="priority" fringe="inner">
        <param key="buffer_stop" value="true"/>
    </node>
    <node id="1241884431" x="5716.93" y="4391.22" type="priority"/>
    <node id="12435304776" x="4133.10" y="1956.52" type="priority"/>
    <node id="12435304778" x="4162.76" y="1939.54" type="priority"/>
    <node id="12435304780" x="4142.16" y="1947.26" type="priority"/>
    <node id="12435304786" x="4282.62" y="1862.82" type="priority"/>
    <node id="12435304793" x="4207.06" y="1911.07" type="priority"/>