<?xml version="1.0" encoding="UTF-8"?>

<!-- generated on 2025-04-04 16:25:56 by Eclipse SUMO netconvert Version 1.19.0
<configuration xmlns:xsi="http://www.w3.org/2001/XMLSchema-instance" xsi:noNamespaceSchemaLocation="http://sumo.dlr.de/xsd/netconvertConfiguration.xsd">

    <input>
        <sumo-net-file value="buc/buc.net.xml"/>
    </input>

    <output>
        <plain-output-prefix value="buc/buc"/>
    </output>

    <processing>
        <geometry.min-radius.fix.railways value="false"/>
        <geometry.max-grade.fix value="false"/>
        <offset.disable-normalization value="true"/>
        <lefthand value="0"/>
    </processing>

    <tls_building>
        <tls.ignore-internal-junction-jam value="1"/>
    </tls_building>

    <junctions>
        <no-turnarounds value="true"/>
        <junctions.corner-detail value="5"/>
        <junctions.limit-turn-speed value="5.50"/>
        <rectangular-lane-cut value="0"/>
    </junctions>

    <pedestrian>
        <walkingareas value="0"/>
    </pedestrian>

</configuration>
-->

<tlLogics version="1.16" xmlns:xsi="http://www.w3.org/2001/XMLSchema-instance" xsi:noNamespaceSchemaLocation="http://sumo.dlr.de/xsd/tllogic_file.xsd">
    <tlLogic id="10119218281" type="static" programID="0" offset="0">
        <phase duration="82" state="GG"/>
        <phase duration="3"  state="yy"/>
        <phase duration="5"  state="rr"/>
    </tlLogic>
    <tlLogic id="10119218282" type="static" programID="0" offset="0">
        <phase duration="82" state="GG"/>
        <phase duration="3"  state="yy"/>
        <phase duration="5"  state="rr"/>
    </tlLogic>
    <tlLogic id="105356390" type="static" programID="0" offset="0">
        <phase duration="80" state="GG"/>
        <phase duration="5"  state="yy"/>
        <phase duration="5"  state="rr"/>
    </tlLogic>
    <tlLogic id="105358552" type="static" programID="0" offset="0">
        <phase duration="80" state="GG"/>
        <phase duration="5"  state="yy"/>
        <phase duration="5"  state="rr"/>
    </tlLogic>
    <tlLogic id="1106779615" type="static" programID="0" offset="0">
        <phase duration="82" state="GG"/>
        <phase duration="3"  state="yy"/>
        <phase duration="5"  state="rr"/>
    </tlLogic>
    <tlLogic id="1106779616" type="static" programID="0" offset="0">
        <phase duration="42" state="GGrrr"/>
        <phase duration="3"  state="yyrrr"/>
        <phase duration="42" state="rrGGG"/>
        <phase duration="3"  state="rryyy"/>
    </tlLogic>
    <tlLogic id="1106779628" type="static" programID="0" offset="0">
        <phase duration="82" state="GG"/>
        <phase duration="3"  state="yy"/>
        <phase duration="5"  state="rr"/>
    </tlLogic>
    <tlLogic id="11139177848" type="static" programID="0" offset="0">
        <phase duration="80" state="G"/>
        <phase duration="5"  state="y"/>
        <phase duration="5"  state="r"/>
    </tlLogic>
    <tlLogic id="12367307673" type="static" programID="0" offset="0">
        <phase duration="82" state="G"/>
        <phase duration="3"  state="y"/>
        <phase duration="5"  state="r"/>
    </tlLogic>
    <tlLogic id="125629781" type="static" programID="0" offset="0">
        <phase duration="38" state="GGGggrrrrGGgg"/>
        <phase duration="3"  state="yyyggrrrryygg"/>
        <phase duration="6"  state="rrrGGrrrrrrGG"/>
        <phase duration="3"  state="rrryyrrrrrryy"/>
        <phase duration="37" state="rrrrrGGGgGrrr"/>
        <phase duration="3"  state="rrrrryyyyyrrr"/>
    </tlLogic>
    <tlLogic id="129534736" type="static" programID="0" offset="0">
        <phase duration="42" state="rrrrGGggrrrrGGgg"/>
        <phase duration="3"  state="rrrryyyyrrrryyyy"/>
        <phase duration="42" state="GGggrrrrGGggrrrr"/>
        <phase duration="3"  state="yyyyrrrryyyyrrrr"/>
    </tlLogic>
    <tlLogic id="1336807165" type="static" programID="0" offset="0">
        <phase duration="82" state="G"/>
        <phase duration="3"  state="y"/>
        <phase duration="5"  state="r"/>
    </tlLogic>
    <tlLogic id="1336807201" type="static" programID="0" offset="0">
        <phase duration="82" state="G"/>
        <phase duration="3"  state="y"/>
        <phase duration="5"  state="r"/>
    </tlLogic>
    <tlLogic id="1413104014" type="static" programID="0" offset="0">
        <phase duration="82" state="G"/>
        <phase duration="3"  state="y"/>
        <phase duration="5"  state="r"/>
    </tlLogic>
    <tlLogic id="1425506381" type="static" programID="0" offset="0">
        <phase duration="42" state="GgGGrrr"/>
        <phase duration="3"  state="yyyyrrr"/>
        <phase duration="42" state="rrrrGGG"/>
        <phase duration="3"  state="rrrryyy"/>
    </tlLogic>
    <tlLogic id="1425521632" type="static" programID="0" offset="0">
        <phase duration="82" state="GG"/>
        <phase duration="3"  state="yy"/>
        <phase duration="5"  state="rr"/>
    </tlLogic>
    <tlLogic id="1426186825" type="static" programID="0" offset="0">
        <phase duration="82" state="GG"/>
        <phase duration="3"  state="yy"/>
        <phase duration="5"  state="rr"/>
    </tlLogic>
    <tlLogic id="1426186829" type="static" programID="0" offset="0">
        <phase duration="82" state="GGG"/>
        <phase duration="3"  state="yyy"/>
        <phase duration="5"  state="rrr"/>
    </tlLogic>
    <tlLogic id="161395188" type="static" programID="0" offset="0">
        <phase duration="42" state="rrrrGGggrrrrGGgg"/>
        <phase duration="3"  state="rrrryyyyrrrryyyy"/>
        <phase duration="42" state="GGggrrrrGGggrrrr"/>
        <phase duration="3"  state="yyyyrrrryyyyrrrr"/>
    </tlLogic>
    <tlLogic id="165143586" type="static" programID="0" offset="0">
        <phase duration="82" state="G"/>
        <phase duration="3"  state="y"/>
        <phase duration="5"  state="r"/>
    </tlLogic>
    <tlLogic id="1798153386" type="static" programID="0" offset="0">
        <phase duration="82" state="GGGG"/>
        <phase duration="3"  state="yyyy"/>
        <phase duration="5"  state="rrrr"/>
    </tlLogic>
    <tlLogic id="1807245424" type="static" programID="0" offset="0">
        <phase duration="82" state="G"/>
        <phase duration="3"  state="y"/>
        <phase duration="5"  state="r"/>
    </tlLogic>
    <tlLogic id="1831131617" type="static" programID="0" offset="0">
        <phase duration="42" state="GGGgrrr"/>
        <phase duration="3"  state="yyyyrrr"/>
        <phase duration="42" state="GrrrGGg"/>
        <phase duration="3"  state="yrrryyy"/>
    </tlLogic>
    <tlLogic id="1867506151" type="static" programID="0" offset="0">
        <phase duration="42" state="GgrrGg"/>
        <phase duration="3"  state="yyrryy"/>
        <phase duration="42" state="rrGGrr"/>
        <phase duration="3"  state="rryyrr"/>
    </tlLogic>
    <tlLogic id="1955744525" type="static" programID="0" offset="0">
        <phase duration="82" state="GG"/>
        <phase duration="3"  state="yy"/>
        <phase duration="5"  state="rr"/>
    </tlLogic>
    <tlLogic id="196188600" type="static" programID="0" offset="0">
        <phase duration="42" state="GgrrGg"/>
        <phase duration="3"  state="yyrryy"/>
        <phase duration="42" state="rrGGrr"/>
        <phase duration="3"  state="rryyrr"/>
    </tlLogic>
    <tlLogic id="196239381" type="static" programID="0" offset="0">
        <phase duration="82" state="GG"/>
        <phase duration="3"  state="yy"/>
        <phase duration="5"  state="rr"/>
    </tlLogic>
    <tlLogic id="205231638" type="static" programID="0" offset="0">
        <phase duration="42" state="GGgrrrGgg"/>
        <phase duration="3"  state="yyyrrryyy"/>
        <phase duration="42" state="rrrGGGrrr"/>
        <phase duration="3"  state="rrryyyrrr"/>
    </tlLogic>
    <tlLogic id="206160513" type="static" programID="0" offset="0">
        <phase duration="27" state="GGgrrrGggrrr"/>
        <phase duration="3"  state="yyyrrryyyrrr"/>
        <phase duration="27" state="GrrrrrrrrGGg"/>
        <phase duration="3"  state="yrrrrrrrryyy"/>
        <phase duration="27" state="rrrGGGrrrrrr"/>
        <phase duration="3"  state="rrryyyrrrrrr"/>
    </tlLogic>
    <tlLogic id="206390086" type="static" programID="0" offset="0">
        <phase duration="42" state="GGggrrrrGGgg"/>
        <phase duration="3"  state="yyyyrrrryyyy"/>
        <phase duration="42" state="rrrrGGGgGrrr"/>
        <phase duration="3"  state="rrrryyyyyrrr"/>
    </tlLogic>
    <tlLogic id="208724529" type="static" programID="0" offset="0">
        <phase duration="80" state="GG"/>
        <phase duration="5"  state="yy"/>
        <phase duration="5"  state="rr"/>
    </tlLogic>
    <tlLogic id="2125815722" type="static" programID="0" offset="0">
        <phase duration="80" state="G"/>
        <phase duration="5"  state="y"/>
        <phase duration="5"  state="r"/>
    </tlLogic>
    <tlLogic id="2125815724" type="static" programID="0" offset="0">
        <phase duration="80" state="G"/>
        <phase duration="5"  state="y"/>
        <phase duration="5"  state="r"/>
    </tlLogic>
    <tlLogic id="213632059" type="static" programID="0" offset="0">
        <phase duration="82" state="G"/>
        <phase duration="3"  state="y"/>
        <phase duration="5"  state="r"/>
    </tlLogic>
    <tlLogic id="213632369" type="static" programID="0" offset="0">
        <phase duration="82" state="G"/>
        <phase duration="3"  state="y"/>
        <phase duration="5"  state="r"/>
    </tlLogic>
    <tlLogic id="2456659285" type="static" programID="0" offset="0">
        <phase duration="82" state="GG"/>
        <phase duration="3"  state="yy"/>
        <phase duration="5"  state="rr"/>
    </tlLogic>
    <tlLogic id="2477988961" type="static" programID="0" offset="0">
        <phase duration="82" state="GG"/>
        <phase duration="3"  state="yy"/>
        <phase duration="5"  state="rr"/>
    </tlLogic>
    <tlLogic id="2479094331" type="static" programID="0" offset="0">
        <phase duration="82" state="G"/>
        <phase duration="3"  state="y"/>
        <phase duration="5"  state="r"/>
    </tlLogic>
    <tlLogic id="259095672" type="static" programID="0" offset="0">
        <phase duration="82" state="GG"/>
        <phase duration="3"  state="yy"/>
        <phase duration="5"  state="rr"/>
    </tlLogic>
    <tlLogic id="259095677" type="static" programID="0" offset="0">
        <phase duration="80" state="G"/>
        <phase duration="5"  state="y"/>
        <phase duration="5"  state="r"/>
    </tlLogic>
    <tlLogic id="2663215198" type="static" programID="0" offset="0">
        <phase duration="82" state="GG"/>
        <phase duration="3"  state="yy"/>
        <phase duration="5"  state="rr"/>
    </tlLogic>
    <tlLogic id="2663215199" type="static" programID="0" offset="0">
        <phase duration="82" state="GG"/>
        <phase duration="3"  state="yy"/>
        <phase duration="5"  state="rr"/>
    </tlLogic>
    <tlLogic id="2697831575" type="static" programID="0" offset="0">
        <phase duration="82" state="GG"/>
        <phase duration="3"  state="yy"/>
        <phase duration="5"  state="rr"/>
    </tlLogic>
    <tlLogic id="2730989734" type="static" programID="0" offset="0">
        <phase duration="82" state="GG"/>
        <phase duration="3"  state="yy"/>
        <phase duration="5"  state="rr"/>
    </tlLogic>
    <tlLogic id="311410411" type="static" programID="0" offset="0">
        <phase duration="40" state="GGrr"/>
        <phase duration="5"  state="yyrr"/>
        <phase duration="40" state="rrGG"/>
        <phase duration="5"  state="rryy"/>
    </tlLogic>
    <tlLogic id="3387804142" type="static" programID="0" offset="0">
        <phase duration="80" state="G"/>
        <phase duration="5"  state="y"/>
        <phase duration="5"  state="r"/>
    </tlLogic>
    <tlLogic id="34912004" type="static" programID="0" offset="0">
        <phase duration="42" state="GggrrrGGg"/>
        <phase duration="3"  state="yyyrrryyy"/>
        <phase duration="42" state="rrrGGgGrr"/>
        <phase duration="3"  state="rrryyyyrr"/>
    </tlLogic>
    <tlLogic id="35157845" type="static" programID="0" offset="0">
        <phase duration="33" state="rrrrGGggrrrrGGgg"/>
        <phase duration="3"  state="rrrryyggrrrryygg"/>
        <phase duration="6"  state="rrrrrrGGrrrrrrGG"/>
        <phase duration="3"  state="rrrrrryyrrrrrryy"/>
        <phase duration="33" state="GGggrrrrGGggrrrr"/>
        <phase duration="3"  state="yyggrrrryyggrrrr"/>
        <phase duration="6"  state="rrGGrrrrrrGGrrrr"/>
        <phase duration="3"  state="rryyrrrrrryyrrrr"/>
    </tlLogic>
    <tlLogic id="3729958315" type="static" programID="0" offset="0">
        <phase duration="82" state="GG"/>
        <phase duration="3"  state="yy"/>
        <phase duration="5"  state="rr"/>
    </tlLogic>
    <tlLogic id="3920988823" type="static" programID="0" offset="0">
        <phase duration="82" state="G"/>
        <phase duration="3"  state="y"/>
        <phase duration="5"  state="r"/>
    </tlLogic>
    <tlLogic id="4090470189" type="static" programID="0" offset="0">
        <phase duration="82" state="GG"/>
        <phase duration="3"  state="yy"/>
        <phase duration="5"  state="rr"/>
    </tlLogic>
    <tlLogic id="4090470192" type="static" programID="0" offset="0">
        <phase duration="82" state="GG"/>
        <phase duration="3"  state="yy"/>
        <phase duration="5"  state="rr"/>
    </tlLogic>
    <tlLogic id="4112573249" type="static" programID="0" offset="0">
        <phase duration="82" state="GG"/>
        <phase duration="3"  state="yy"/>
        <phase duration="5"  state="rr"/>
    </tlLogic>
    <tlLogic id="4317231801" type="static" programID="0" offset="0">
        <phase duration="82" state="G"/>
        <phase duration="3"  state="y"/>
        <phase duration="5"  state="r"/>
    </tlLogic>
    <tlLogic id="4317231805" type="static" programID="0" offset="0">
        <phase duration="82" state="GG"/>
        <phase duration="3"  state="yy"/>
        <phase duration="5"  state="rr"/>
    </tlLogic>
    <tlLogic id="4317536677" type="static" programID="0" offset="0">
        <phase duration="82" state="GG"/>
        <phase duration="3"  state="yy"/>
        <phase duration="5"  state="rr"/>
    </tlLogic>
    <tlLogic id="4317536696" type="static" programID="0" offset="0">
        <phase duration="82" state="GG"/>
        <phase duration="3"  state="yy"/>
        <phase duration="5"  state="rr"/>
    </tlLogic>
    <tlLogic id="4319306984" type="static" programID="0" offset="0">
        <phase duration="79" state="GG"/>
        <phase duration="6"  state="yy"/>
        <phase duration="5"  state="rr"/>
    </tlLogic>
    <tlLogic id="4342549859" type="static" programID="0" offset="0">
        <phase duration="82" state="GG"/>
        <phase duration="3"  state="yy"/>
        <phase duration="5"  state="rr"/>
    </tlLogic>
    <tlLogic id="5322089807" type="static" programID="0" offset="0">
        <phase duration="82" state="GGGGG"/>
        <phase duration="3"  state="yyyyy"/>
        <phase duration="5"  state="rrrrr"/>
    </tlLogic>
    <tlLogic id="600025575" type="static" programID="0" offset="0">
        <phase duration="82" state="GG"/>
        <phase duration="3"  state="yy"/>
        <phase duration="5"  state="rr"/>
    </tlLogic>
    <tlLogic id="6116214467" type="static" programID="0" offset="0">
        <phase duration="80" state="G"/>
        <phase duration="5"  state="y"/>
        <phase duration="5"  state="r"/>
    </tlLogic>
    <tlLogic id="6116214476" type="static" programID="0" offset="0">
        <phase duration="82" state="GGG"/>
        <phase duration="3"  state="yyy"/>
        <phase duration="5"  state="rrr"/>
    </tlLogic>
    <tlLogic id="6116214479" type="static" programID="0" offset="0">
        <phase duration="82" state="GG"/>
        <phase duration="3"  state="yy"/>
        <phase duration="5"  state="rr"/>
    </tlLogic>
    <tlLogic id="6340147667" type="static" programID="0" offset="0">
        <phase duration="82" state="GG"/>
        <phase duration="3"  state="yy"/>
        <phase duration="5"  state="rr"/>
    </tlLogic>
    <tlLogic id="703501087" type="static" programID="0" offset="0">
        <phase duration="42" state="rrrGGgGgg"/>
        <phase duration="3"  state="rrryyyyyy"/>
        <phase duration="42" state="GGgGrrrrr"/>
        <phase duration="3"  state="yyyyrrrrr"/>
    </tlLogic>
    <tlLogic id="7243140350" type="static" programID="0" offset="0">
        <phase duration="82" state="GG"/>
        <phase duration="3"  state="yy"/>
        <phase duration="5"  state="rr"/>
    </tlLogic>
    <tlLogic id="7272630934" type="static" programID="0" offset="0">
        <phase duration="82" state="G"/>
        <phase duration="3"  state="y"/>
        <phase duration="5"  state="r"/>
    </tlLogic>
    <tlLogic id="792120190" type="static" programID="0" offset="0">
        <phase duration="79" state="GGG"/>
        <phase duration="6"  state="yyy"/>
        <phase duration="5"  state="rrr"/>
    </tlLogic>
    <tlLogic id="801179584" type="static" programID="0" offset="0">
        <phase duration="79" state="GG"/>
        <phase duration="6"  state="yy"/>
        <phase duration="5"  state="rr"/>
    </tlLogic>
    <tlLogic id="8235811180" type="static" programID="0" offset="0">
        <phase duration="42" state="Gr"/>
        <phase duration="3"  state="yr"/>
        <phase duration="42" state="rG"/>
        <phase duration="3"  state="ry"/>
    </tlLogic>
    <tlLogic id="907016706" type="static" programID="0" offset="0">
        <phase duration="82" state="GG"/>
        <phase duration="3"  state="yy"/>
        <phase duration="5"  state="rr"/>
    </tlLogic>
    <tlLogic id="9100416412" type="static" programID="0" offset="0">
        <phase duration="82" state="GG"/>
        <phase duration="3"  state="yy"/>
        <phase duration="5"  state="rr"/>
    </tlLogic>
    <tlLogic id="978479880" type="static" programID="0" offset="0">
        <phase duration="82" state="GG"/>
        <phase duration="3"  state="yy"/>
        <phase duration="5"  state="rr"/>
    </tlLogic>
    <tlLogic id="978479881" type="static" programID="0" offset="0">
        <phase duration="82" state="GG"/>
        <phase duration="3"  state="yy"/>
        <phase duration="5"  state="rr"/>
    </tlLogic>
    <tlLogic id="9876488564" type="static" programID="0" offset="0">
        <phase duration="79" state="GG"/>
        <phase duration="6"  state="yy"/>
        <phase duration="5"  state="rr"/>
    </tlLogic>
    <tlLogic id="990337711" type="static" programID="0" offset="0">
        <phase duration="82" state="G"/>
        <phase duration="3"  state="y"/>
        <phase duration="5"  state="r"/>
    </tlLogic>
    <tlLogic id="GS_125629783" type="static" programID="0" offset="0">
        <phase duration="42" state="GggrrrGGg"/>
        <phase duration="3"  state="yyyrrryyy"/>
        <phase duration="42" state="rrrGGgGrr"/>
        <phase duration="3"  state="rrryyyyrr"/>
    </tlLogic>
    <tlLogic id="GS_125630659" type="static" programID="0" offset="0">
        <phase duration="42" state="GgrrGg"/>
        <phase duration="3"  state="yyrryy"/>
        <phase duration="42" state="rrGGrr"/>
        <phase duration="3"  state="rryyrr"/>
    </tlLogic>
    <tlLogic id="GS_1449561096" type="static" programID="0" offset="0">
        <phase duration="40" state="GGGrr"/>
        <phase duration="5"  state="yyyrr"/>
        <phase duration="40" state="GrrGg"/>
        <phase duration="5"  state="yrryy"/>
    </tlLogic>
    <tlLogic id="GS_1593898897" type="static" programID="0" offset="0">
        <phase duration="82" state="GGggGGgg"/>
        <phase duration="3"  state="yyyyyyyy"/>
        <phase duration="5"  state="rrrrrrrr"/>
    </tlLogic>
    <tlLogic id="GS_1770503175" type="static" programID="0" offset="0">
        <phase duration="42" state="GGggrrrrGGggrrrr"/>
        <phase duration="3"  state="yyyyrrrryyyyrrrr"/>
        <phase duration="42" state="rrrrGGggrrrrGGgg"/>
        <phase duration="3"  state="rrrryyyyrrrryyyy"/>
    </tlLogic>
    <tlLogic id="GS_1798131825" type="static" programID="0" offset="0">
        <phase duration="27" state="rrrrrrGGG"/>
        <phase duration="3"  state="rrrrrryyy"/>
        <phase duration="27" state="rrrGGGrrr"/>
        <phase duration="3"  state="rrryyyrrr"/>
        <phase duration="27" state="GGgGrrrrr"/>
        <phase duration="3"  state="yyyyrrrrr"/>
    </tlLogic>
    <tlLogic id="GS_180220485" type="static" programID="0" offset="0">
        <phase duration="42" state="GGggrrrrGGggrrrr"/>
        <phase duration="3"  state="yyyyrrrryyyyrrrr"/>
        <phase duration="42" state="rrrrGGggrrrrGGgg"/>
        <phase duration="3"  state="rrrryyyyrrrryyyy"/>
    </tlLogic>
    <tlLogic id="GS_196616052" type="static" programID="0" offset="0">
        <phase duration="38" state="GGgGggrrr"/>
        <phase duration="3"  state="yyyyggrrr"/>
        <phase duration="6"  state="rrrGGGrrr"/>
        <phase duration="3"  state="rrryyyrrr"/>
        <phase duration="37" state="GrrrrrGGg"/>
        <phase duration="3"  state="yrrrrryyy"/>
    </tlLogic>
    <tlLogic id="GS_206254082" type="static" programID="0" offset="0">
        <phase duration="42" state="GggrrrGGg"/>
        <phase duration="3"  state="yyyrrryyy"/>
        <phase duration="42" state="rrrGGgGrr"/>
        <phase duration="3"  state="rrryyyyrr"/>
    </tlLogic>
    <tlLogic id="GS_231810028" type="static" programID="0" offset="0">
        <phase duration="42" state="GGgrrrGgg"/>
        <phase duration="3"  state="yyyrrryyy"/>
        <phase duration="42" state="rrrGGGrrr"/>
        <phase duration="3"  state="rrryyyrrr"/>
    </tlLogic>
    <tlLogic id="GS_237611938" type="static" programID="0" offset="0">
        <phase duration="82" state="GggGGg"/>
        <phase duration="3"  state="yyyyyy"/>
        <phase duration="5"  state="rrrrrr"/>
    </tlLogic>
    <tlLogic id="GS_30254852" type="static" programID="0" offset="0">
        <phase duration="42" state="GgrrGg"/>
        <phase duration="3"  state="yyrryy"/>
        <phase duration="42" state="rrGGrr"/>
        <phase duration="3"  state="rryyrr"/>
    </tlLogic>
    <tlLogic id="GS_310576715" type="static" programID="0" offset="0">
        <phase duration="42" state="rrrrGGggrrrrGGgg"/>
        <phase duration="3"  state="rrrryyyyrrrryyyy"/>
        <phase duration="42" state="GGggrrrrGGggrrrr"/>
        <phase duration="3"  state="yyyyrrrryyyyrrrr"/>
    </tlLogic>
    <tlLogic id="GS_35157905" type="static" programID="0" offset="0">
        <phase duration="42" state="rrrGGgGGgg"/>
        <phase duration="3"  state="rrryyyyyyy"/>
        <phase duration="42" state="GGgGrrrrrr"/>
        <phase duration="3"  state="yyyyrrrrrr"/>
    </tlLogic>
    <tlLogic id="GS_5343200822" type="static" programID="0" offset="0">
        <phase duration="82" state="GGgGGgg"/>
        <phase duration="3"  state="yyyyyyy"/>
        <phase duration="5"  state="rrrrrrr"/>
    </tlLogic>
    <tlLogic id="GS_738531240" type="static" programID="0" offset="0">
        <phase duration="42" state="GggrrrGGg"/>
        <phase duration="3"  state="yyyrrryyy"/>
        <phase duration="42" state="rrrGGgGrr"/>
        <phase duration="3"  state="rrryyyyrr"/>
    </tlLogic>
    <tlLogic id="GS_cluster_1404775605_2308939935" type="static" programID="0" offset="0">
        <phase duration="24" state="rrGGGgGrrrrrrr"/>
        <phase duration="3"  state="rryyyyyrrrrrrr"/>
        <phase duration="24" state="gGrrrrGggGrrrr"/>
        <phase duration="3"  state="gyrrrryggyrrrr"/>
        <phase duration="6"  state="grrrrrrGGrrrrr"/>
        <phase duration="3"  state="yrrrrrryyrrrrr"/>
        <phase duration="24" state="rrrrrrrrrrGGGG"/>
        <phase duration="3"  state="rrrrrrrrrryyyy"/>
    </tlLogic>
    <tlLogic id="GS_cluster_1460964555_5113324617" type="static" programID="0" offset="0">
        <phase duration="82" state="gggGgGggggGGgGG"/>
        <phase duration="3"  state="yyyyyyyyyyyyyyy"/>
        <phase duration="5"  state="rrrrrrrrrrrrrrr"/>
    </tlLogic>
    <tlLogic id="GS_cluster_1831804345_206217130_5891672611_5891676351_#3more" type="static" programID="0" offset="0">
        <phase duration="17" state="rrrrGGGGrrrrrrrr"/>
        <phase duration="3"  state="rrrryyyyrrrrrrrr"/>
        <phase duration="1"  state="rrrrrrrrrrrrrrrr"/>
        <phase duration="20" state="GGGGrrrrrrrrrrrr"/>
        <phase duration="3"  state="yyyyrrrrrrrrrrrr"/>
        <phase duration="20" state="rrrrrrrrrrrrGGGG"/>
        <phase duration="3"  state="rrrrrrrrrrrryyyy"/>
        <phase duration="20" state="rrrrrrrrGGGgGrrr"/>
        <phase duration="3"  state="rrrrrrrryyyyyrrr"/>
    </tlLogic>
    <tlLogic id="GS_cluster_1832557203_1832557206" type="static" programID="0" offset="0">
        <phase duration="27" state="rrGrrG"/>
        <phase duration="3"  state="rryrry"/>
        <phase duration="27" state="rrrGGr"/>
        <phase duration="3"  state="rrryyr"/>
        <phase duration="27" state="GGrrrr"/>
        <phase duration="3"  state="yyrrrr"/>
    </tlLogic>
    <tlLogic id="GS_cluster_205331342_205338508" type="static" programID="0" offset="0">
        <phase duration="42" state="GGggrrrrGGggrrrr"/>
        <phase duration="3"  state="yyyyrrrryyyyrrrr"/>
        <phase duration="1"  state="rrrrrrrrrrrrrrrr"/>
        <phase duration="41" state="rrrrGGggrrrrGGgg"/>
        <phase duration="3"  state="rrrryyyyrrrryyyy"/>
    </tlLogic>
    <tlLogic id="GS_cluster_206160272_895741713" type="static" programID="0" offset="0">
        <phase duration="42" state="GGrr"/>
        <phase duration="3"  state="yyrr"/>
        <phase duration="42" state="rrGG"/>
        <phase duration="3"  state="rryy"/>
    </tlLogic>
    <tlLogic id="GS_cluster_206254100_206273327_206273328_206273332" type="static" programID="0" offset="0">
        <phase duration="26" state="GGGggrrrrrGGgggrrrrrrrrrr"/>
        <phase duration="3"  state="yyyyyrrrrryyyyyrrrrrrrrrr"/>
        <phase duration="1"  state="rrrrrrrrrrrrrrrrrrrrrrrrr"/>
        <phase duration="26" state="rrrrrGGGggrrrrrGGgggrrrrr"/>
        <phase duration="3"  state="rrrrryyyyyrrrrryyyyyrrrrr"/>
        <phase duration="1"  state="rrrrrrrrrrrrrrrrrrrrrrrrr"/>
        <phase duration="26" state="GrrrrrrrrrrrrrrrrrrrGGGGg"/>
        <phase duration="3"  state="yrrrrrrrrrrrrrrrrrrryyyyy"/>
        <phase duration="1"  state="rrrrrrrrrrrrrrrrrrrrrrrrr"/>
    </tlLogic>
    <tlLogic id="GS_cluster_2136230829_229799850_7739328891_96487231" type="static" programID="0" offset="0">
        <phase duration="38" state="GGGggggrrrrrGGGgGgggggrr"/>
        <phase duration="3"  state="yyyggggrrrrryyygyyggggrr"/>
        <phase duration="6"  state="rrrggggrrrrrrrrGrrggggrr"/>
        <phase duration="3"  state="rrryyyyrrrrrrrryrryyyyrr"/>
        <phase duration="37" state="rrrrrrrGGGgGrrrrrrrrrrGg"/>
        <phase duration="3"  state="rrrrrrryyyyyrrrrrrrrrryy"/>
    </tlLogic>
    <tlLogic id="GS_cluster_231783229_83070460" type="static" programID="0" offset="0">
        <phase duration="42" state="GGggrrrrGGgg"/>
        <phase duration="3"  state="yyyyrrrryyyy"/>
        <phase duration="1"  state="rrrrrrrrrrrr"/>
        <phase duration="41" state="rrrrGGGgGrrr"/>
        <phase duration="3"  state="rrrryyyyyrrr"/>
    </tlLogic>
    <tlLogic id="GS_cluster_237600359_30254840" type="static" programID="0" offset="0">
        <phase duration="42" state="rrrrGGggrrrrGGgg"/>
        <phase duration="3"  state="rrrryyyyrrrryyyy"/>
        <phase duration="42" state="GGggrrrrGGggrrrr"/>
        <phase duration="3"  state="yyyyrrrryyyyrrrr"/>
    </tlLogic>
    <tlLogic id="GS_cluster_242698574_311387152" type="static" programID="0" offset="0">
        <phase duration="40" state="GGrrrGgg"/>
        <phase duration="5"  state="yyrrryyy"/>
        <phase duration="40" state="rrGGGrrr"/>
        <phase duration="5"  state="rryyyrrr"/>
    </tlLogic>
    <tlLogic id="GS_cluster_243680854_2545991627" type="static" programID="0" offset="0">
        <phase duration="25" state="rrrrrrGGgGgg"/>
        <phase duration="5"  state="rrrrrryyyyyy"/>
        <phase duration="25" state="GGgGrrrrrrrr"/>
        <phase duration="5"  state="yyyyrrrrrrrr"/>
        <phase duration="25" state="rrrGGGrrrrrr"/>
        <phase duration="5"  state="rrryyyrrrrrr"/>
    </tlLogic>
    <tlLogic id="cluster_1011100786_192811605_2352550447_2352550448_#6more" type="static" programID="0" offset="0">
        <phase duration="17" state="GGGrgGgrrrrrrGGGGgggggrrr"/>
        <phase duration="3"  state="yyyryyyrrrrrryyyyyyyyyrrr"/>
        <phase duration="3"  state="rrrrrrrrrrrrrrrrrrrrrrrrr"/>
        <phase duration="19" state="GGGGrrgGrGrrgGrrrrrrrrGrr"/>
        <phase duration="3"  state="yyyyrryyryrryyrrrrrrrryrr"/>
        <phase duration="19" state="GrrrrrrGgGGGgGrrrrrrrrrrr"/>
        <phase duration="3"  state="yrrrrrryyyyyyyrrrrrrrrrrr"/>
        <phase duration="1"  state="rrrrrrrrrrrrrrrrrrrrrrrrr"/>
        <phase duration="19" state="GrrGrGgGrGrrgGrrrrrrrrrGg"/>
        <phase duration="3"  state="yrryryyyryrryyrrrrrrrrryy"/>
    </tlLogic>
    <tlLogic id="cluster_105355899_8358312603" type="static" programID="0" offset="0">
        <phase duration="42" state="GGgGggrrr"/>
        <phase duration="3"  state="yyyyyyrrr"/>
        <phase duration="42" state="GrrrrrGGg"/>
        <phase duration="3"  state="yrrrrryyy"/>
    </tlLogic>
    <tlLogic id="cluster_10836621560_1760300973_2071428370_2071428371_#3more" type="static" programID="0" offset="0">
        <phase duration="20" state="rrrrrgggggGGGgggrrrrrrrrGGGGrr"/>
        <phase duration="6"  state="rrrrrgggggyyygggrrrrrrrryyyyrr"/>
        <phase duration="6"  state="rrrrrgggggrrrGGgrrrrrrrrrrrrGG"/>