<?xml version="1.0" encoding="UTF-8"?>

<!-- generated on 2025-04-04 16:25:56 by Eclipse SUMO netconvert Version 1.19.0
<configuration xmlns:xsi="http://www.w3.org/2001/XMLSchema-instance" xsi:noNamespaceSchemaLocation="http://sumo.dlr.de/xsd/netconvertConfiguration.xsd">

    <input>
        <sumo-net-file value="buc/buc.net.xml"/>
    </input>

    <output>
        <plain-output-prefix value="buc/buc"/>
    </output>

    <processing>
        <geometry.min-radius.fix.railways value="false"/>
        <geometry.max-grade.fix value="false"/>
        <offset.disable-normalization value="true"/>
        <lefthand value="0"/>
    </processing>

    <tls_building>
        <tls.ignore-internal-junction-jam value="1"/>
    </tls_building>

    <junctions>
        <no-turnarounds value="true"/>
        <junctions.corner-detail value="5"/>
        <junctions.limit-turn-speed value="5.50"/>
        <rectangular-lane-cut value="0"/>
    </junctions>

    <pedestrian>
        <walkingareas value="0"/>
    </pedestrian>

</configuration>
-->

<nodes version="1.16" xmlns:xsi="http://www.w3.org/2001/XMLSchema-instance" xsi:noNamespaceSchemaLocation="http://sumo.dlr.de/xsd/nodes_file.xsd">
    <location netOffset="-429915.10,-5401073.95" convBoundary="0.00,0.00,14122.75,11178.96" origBoundary="2.032057,48.747153,2.237870,48.898256" projParameter="+proj=utm +zone=31 +ellps=WGS84 +datum=WGS84 +units=m +no_defs"/>

    <node id="10010431287" x="6136.47" y="948.73" type="priority"/>
    <node id="10023342948" x="8518.34" y="4747.13" type="dead_end"/>
    <node id="10023342950" x="8535.39" y="4738.94" type="dead_end"/>
    <node id="10023343742" x="8513.12" y="4702.21" type="dead_end"/>
    <node id="10023343743" x="8516.43" y="4706.82" type="dead_end"/>
    <node id="10023343744" x="8517.33" y="4702.33" type="priority"/>
    <node id="10023343745" x="8521.36" y="4699.24" type="priority"/>
    <node id="10024035142" x="2102.76" y="5206.98" type="priority"/>
    <node id="10024035148" x="2205.38" y="5368.89" type="dead_end"/>
    <node id="10024035197" x="2305.56" y="5282.35" type="dead_end"/>
    <node id="10024035205" x="2300.08" y="5283.10" type="priority"/>
    <node id="10024035206" x="2309.27" y="5281.91" type="dead_end"/>
    <node id="10024035208" x="2298.26" y="5323.01" type="dead_end"/>
    <node id="10024035209" x="2313.63" y="5321.09" type="dead_end"/>
    <node id="10024035210" x="2305.09" y="5258.62" type="dead_end"/>
    <node id="10024035211" x="2291.97" y="5260.30" type="priority"/>
    <node id="10024035212" x="2306.61" y="5258.43" type="dead_end"/>
    <node id="10024042919" x="2287.90" y="5324.28" type="priority"/>
    <node id="10024612628" x="2313.63" y="8811.22" type="dead_end"/>
    <node id="10024612635" x="2210.13" y="8831.99" type="dead_end"/>
    <node id="10024612638" x="2339.89" y="8807.20" type="dead_end"/>
    <node id="10024612643" x="2393.08" y="8768.39" type="priority"/>
    <node id="10024612653" x="2393.66" y="8777.87" type="priority"/>
    <node id="10024612654" x="2386.93" y="8776.15" type="priority"/>
    <node id="10024612669" x="2137.68" y="8681.44" type="dead_end"/>
    <node id="10024612677" x="2089.03" y="8669.70" type="dead_end"/>
    <node id="10024612693" x="2036.87" y="8594.86" type="dead_end"/>
    <node id="10024612694" x="2033.40" y="8592.22" type="dead_end"/>
    <node id="10024612701" x="2170.82" y="8669.25" type="dead_end"/>
    <node id="10024612702" x="2155.74" y="8633.00" type="priority"/>
    <node id="10026410949" x="9885.52" y="6284.19" type="right_before_left"/>
    <node id="10026502102" x="8161.43" y="7083.18" type="right_before_left"/>
    <node id="10026502106" x="8081.23" y="7035.01" type="right_before_left"/>
    <node id="10026502112" x="7999.69" y="6987.81" type="right_before_left"/>
    <node id="10026502113" x="8051.06" y="7051.12" type="right_before_left"/>
    <node id="10026514919" x="7988.29" y="6996.30" type="right_before_left"/>
    <node id="10029121336" x="2326.67" y="5299.93" type="dead_end"/>
    <node id="10029121337" x="2327.13" y="5302.10" type="dead_end"/>
    <node id="10029121338" x="2336.79" y="5298.66" type="dead_end"/>
    <node id="10029121339" x="2337.01" y="5301.03" type="dead_end"/>
    <node id="10029121340" x="2329.13" y="5231.93" type="dead_end"/>
    <node id="10029121341" x="2329.38" y="5233.86" type="dead_end"/>
    <node id="10029121342" x="2318.41" y="5233.10" type="dead_end"/>
    <node id="10029121343" x="2318.68" y="5235.54" type="dead_end"/>
    <node id="10032910086" x="2613.70" y="6487.30" type="priority"/>
    <node id="10032910089" x="2632.56" y="6495.05" type="right_before_left"/>
    <node id="10032910090" x="2665.92" y="6442.65" type="priority"/>
    <node id="10032910092" x="2657.12" y="6454.18" type="right_before_left"/>
    <node id="10032910097" x="2626.13" y="6505.01" type="right_before_left"/>
    <node id="10032910099" x="2581.82" y="6497.30" type="priority"/>
    <node id="10032910102" x="2586.08" y="6564.50" type="priority"/>
    <node id="10039805332" x="2084.88" y="4462.24" type="dead_end"/>
    <node id="10039805333" x="2031.09" y="4455.63" type="dead_end"/>
    <node id="10039805343" x="1957.83" y="4446.12" type="dead_end"/>
    <node id="10039805347" x="2075.70" y="4459.10" type="dead_end"/>
    <node id="10039805352" x="2085.35" y="4461.15" type="dead_end"/>
    <node id="10039805353" x="2086.51" y="4459.49" type="dead_end"/>
    <node id="10041280199" x="11585.44" y="2088.69" type="priority"/>
    <node id="10041632741" x="8034.38" y="4937.06" type="priority"/>
    <node id="10053220430" x="6265.06" y="1431.04" type="right_before_left"/>
    <node id="10053220431" x="6151.17" y="1445.58" type="priority"/>
    <node id="10053220432" x="6184.64" y="1471.97" type="right_before_left"/>
    <node id="10053220506" x="5775.72" y="2297.51" type="right_before_left"/>
    <node id="10060931591" x="2430.92" y="6264.42" type="priority"/>
    <node id="10060931593" x="2458.05" y="6351.83" type="dead_end"/>
    <node id="10060931601" x="2435.58" y="6264.31" type="dead_end"/>
    <node id="10060931602" x="2574.31" y="6611.17" type="priority"/>
    <node id="10060931616" x="2478.13" y="6291.15" type="priority"/>
    <node id="10060956019" x="2569.97" y="6617.17" type="priority"/>
    <node id="10066033998" x="2541.53" y="1380.81" type="priority"/>
    <node id="10066033999" x="2516.45" y="1403.80" type="priority"/>
    <node id="10072901813" x="5894.36" y="4225.65" type="priority"/>
    <node id="10080968030" x="6216.33" y="4961.54" type="priority"/>
    <node id="10080968033" x="6134.69" y="4988.90" type="right_before_left"/>
    <node id="10083563712" x="7778.14" y="4209.16" type="dead_end"/>
    <node id="10083564817" x="7778.52" y="4201.28" type="dead_end"/>
    <node id="10083564818" x="7779.06" y="4168.36" type="priority"/>
    <node id="10083564830" x="7776.73" y="4136.93" type="right_before_left"/>
    <node id="10083564831" x="7843.14" y="4170.76" type="right_before_left"/>
    <node id="10083564832" x="7850.37" y="4152.73" type="priority"/>
    <node id="10083564833" x="7777.80" y="4233.62" type="dead_end"/>
    <node id="10083564834" x="7777.82" y="4226.15" type="dead_end"/>
    <node id="10083564835" x="7778.70" y="4189.77" type="dead_end"/>
    <node id="10083564836" x="7778.73" y="4187.21" type="dead_end"/>
    <node id="10108104558" x="2437.21" y="6240.04" type="dead_end"/>
    <node id="10108104560" x="2432.15" y="6240.09" type="priority"/>
    <node id="10108104569" x="2604.70" y="6646.64" type="dead_end"/>
    <node id="10108104575" x="2539.43" y="6606.99" type="dead_end"/>
    <node id="10108104576" x="2537.91" y="6595.42" type="dead_end"/>
    <node id="10108104577" x="2542.43" y="6588.64" type="priority"/>
    <node id="10108104578" x="2545.84" y="6583.25" type="dead_end"/>
    <node id="10108104579" x="2577.06" y="6608.01" type="dead_end"/>
    <node id="10108104582" x="2576.78" y="6592.43" type="priority"/>
    <node id="10108104585" x="2558.29" y="6579.12" type="dead_end"/>
    <node id="10108104590" x="2484.65" y="6340.93" type="dead_end"/>
    <node id="10108104591" x="2564.11" y="6580.39" type="priority"/>
    <node id="10108104597" x="2432.91" y="6169.52" type="dead_end"/>
    <node id="10108104600" x="2440.42" y="6169.18" type="dead_end"/>
    <node id="10108104603" x="2451.25" y="6235.29" type="dead_end"/>
    <node id="10108104604" x="2451.66" y="6237.60" type="dead_end"/>
    <node id="10108104606" x="2440.72" y="6239.52" type="dead_end"/>
    <node id="10108104607" x="2440.35" y="6237.39" type="dead_end"/>
    <node id="10108178090" x="10481.44" y="4889.60" type="priority"/>
    <node id="10108178091" x="10507.81" y="4878.93" type="priority"/>
    <node id="10115976414" x="6937.18" y="8521.99" type="priority"/>
    <node id="10116000117" x="6968.02" y="8506.77" type="priority"/>
    <node id="10116956864" x="7492.16" y="5944.98" type="dead_end"/>
    <node id="10116956866" x="7485.91" y="5945.10" type="right_before_left"/>
    <node id="10116956867" x="7493.61" y="5945.29" type="dead_end"/>
    <node id="10116956868" x="7493.63" y="5944.37" type="dead_end"/>
    <node id="10116956880" x="7493.24" y="5944.27" type="dead_end"/>
    <node id="10116956881" x="7533.96" y="5926.45" type="dead_end"/>
    <node id="10116956892" x="7512.71" y="5944.81" type="dead_end"/>
    <node id="10116956897" x="7530.94" y="5923.95" type="dead_end"/>
    <node id="10116956898" x="7522.94" y="5924.35" type="dead_end"/>
    <node id="10117002579" x="7566.90" y="5932.54" type="dead_end"/>
    <node id="10119218271" x="5326.66" y="8562.59" type="dead_end"/>
    <node id="10119218276" x="5367.00" y="8527.32" type="dead_end"/>
    <node id="10119218277" x="5355.65" y="8535.62" type="dead_end"/>
    <node id="10119218280" x="5343.51" y="8512.51" type="dead_end"/>
    <node id="10119218281" x="5327.13" y="8555.79" type="traffic_light" tl="10119218281"/>
    <node id="10119218282" x="5328.07" y="8546.50" type="traffic_light" tl="10119218282"/>
    <node id="10124175451" x="7859.18" y="8267.73" type="priority"/>
    <node id="10126075486" x="6977.78" y="5735.99" type="priority"/>
    <node id="10126319946" x="2438.57" y="6239.85" type="dead_end"/>
    <node id="10126368622" x="6466.94" y="5485.25" type="right_before_left"/>
    <node id="10126402896" x="2125.21" y="8612.09" type="dead_end"/>
    <node id="10129844345" x="7529.25" y="5905.77" type="dead_end"/>
    <node id="10129914356" x="7478.49" y="5738.75" type="priority"/>
    <node id="10129914361" x="7546.78" y="5747.92" type="dead_end"/>
    <node id="10129914362" x="7562.85" y="5751.88" type="dead_end"/>
    <node id="10129914363" x="7550.21" y="5748.68" type="dead_end"/>
    <node id="10129914383" x="7526.79" y="5764.08" type="dead_end"/>
    <node id="10129914396" x="7474.86" y="5769.19" type="dead_end"/>
    <node id="10129914397" x="7478.95" y="5835.70" type="dead_end"/>
    <node id="10135057626" x="7570.52" y="3482.78" type="priority"/>
    <node id="10141323953" x="2396.26" y="1253.44" type="priority"/>
    <node id="10142854162" x="9766.43" y="2007.13" type="priority"/>
    <node id="10142854164" x="9802.43" y="1989.88" type="priority"/>
    <node id="10151492195" x="10487.74" y="4914.87" type="dead_end"/>
    <node id="10151492198" x="10495.18" y="4916.44" type="dead_end"/>
    <node id="10151492200" x="10502.63" y="4922.25" type="priority"/>
    <node id="10151492209" x="10518.10" y="4934.34" type="dead_end"/>
    <node id="10151492210" x="10509.56" y="4928.98" type="right_before_left"/>
    <node id="10151492211" x="10502.67" y="4936.95" type="priority"/>
    <node id="10151517836" x="10499.57" y="4939.83" type="dead_end"/>
    <node id="10151517850" x="10483.43" y="4931.60" type="dead_end"/>
    <node id="10151517854" x="10503.16" y="4945.17" type="dead_end"/>
    <node id="10151517872" x="10484.41" y="4981.52" type="dead_end"/>
    <node id="10151517875" x="10490.78" y="4987.25" type="dead_end"/>
    <node id="10151517876" x="10516.06" y="5011.84" type="priority"/>
    <node id="10151517883" x="10489.10" y="4991.58" type="dead_end"/>
    <node id="10151517887" x="10490.20" y="4996.98" type="dead_end"/>
    <node id="10151517891" x="10493.23" y="4985.01" type="dead_end"/>
    <node id="10151517892" x="10491.75" y="4999.00" type="dead_end"/>
    <node id="10151517898" x="10481.35" y="4991.12" type="dead_end"/>
    <node id="10151517899" x="10488.63" y="4997.99" type="dead_end"/>
    <node id="10151517900" x="10484.78" y="4999.95" type="dead_end"/>
    <node id="10151517901" x="10529.16" y="5072.39" type="priority"/>
    <node id="10151517905" x="10578.61" y="5110.25" type="priority"/>
    <node id="10151517908" x="10560.04" y="5100.18" type="priority"/>
    <node id="10151517912" x="10530.65" y="4973.50" type="dead_end"/>
    <node id="10151517917" x="10528.56" y="4973.19" type="dead_end"/>
    <node id="10151517925" x="10492.78" y="4995.33" type="dead_end"/>
    <node id="10151517931" x="10505.84" y="5000.96" type="dead_end"/>
    <node id="10151517932" x="10501.32" y="5002.08" type="dead_end"/>
    <node id="10151517933" x="10520.55" y="4990.40" type="dead_end"/>
    <node id="10151517943" x="10500.74" y="5001.42" type="dead_end"/>
    <node id="10151517979" x="10499.77" y="5003.38" type="dead_end"/>
    <node id="10154914930" x="12258.17" y="6755.35" type="dead_end"/>
    <node id="10156793286" x="10565.70" y="7078.40" type="dead_end"/>
    <node id="10156793287" x="10590.75" y="7095.82" type="dead_end"/>
    <node id="10156793288" x="10588.02" y="7093.91" type="dead_end"/>
    <node id="10156793290" x="10549.33" y="7116.88" type="dead_end"/>
    <node id="10156793292" x="10522.34" y="7138.53" type="dead_end"/>
    <node id="10159840464" x="9133.91" y="4518.54" type="priority"/>
    <node id="10159840465" x="9165.59" y="4523.05" type="dead_end"/>
    <node id="10159840466" x="9168.34" y="4462.56" type="dead_end"/>
    <node id="10159840467" x="9136.15" y="4460.71" type="dead_end"/>
    <node id="10159840468" x="9167.81" y="4474.13" type="dead_end"/>
    <node id="10159840469" x="9172.82" y="4476.08" type="dead_end"/>
    <node id="10159840470" x="9166.91" y="4493.89" type="dead_end"/>
    <node id="10159840471" x="9178.43" y="4494.33" type="priority"/>
    <node id="10159840472" x="9166.04" y="4513.11" type="dead_end"/>
    <node id="10159840473" x="9174.54" y="4513.61" type="priority"/>
    <node id="10170852450" x="9759.94" y="1888.03" type="priority"/>
    <node id="10170852452" x="11695.97" y="1920.07" type="priority"/>
    <node id="10171527904" x="7926.10" y="7145.90" type="right_before_left"/>
    <node id="10173488709" x="11998.99" y="7182.62" type="priority"/>
    <node id="10173812897" x="10593.74" y="7443.19" type="dead_end"/>
    <node id="10173812898" x="10575.48" y="7442.22" type="dead_end"/>
    <node id="10175681382" x="11870.14" y="2149.28" type="priority"/>
    <node id="10175681389" x="11911.32" y="2137.66" type="right_before_left"/>
    <node id="10175681399" x="12022.24" y="2135.90" type="right_before_left"/>
    <node id="10175681416" x="11862.34" y="2111.40" type="dead_end"/>
    <node id="10175705852" x="12066.66" y="2130.32" type="dead_end"/>
    <node id="10175705870" x="12060.72" y="2087.26" type="dead_end"/>
    <node id="10175740946" x="10653.54" y="2292.35" type="dead_end"/>
    <node id="10175740948" x="10717.06" y="2284.89" type="dead_end"/>
    <node id="10175740950" x="10649.53" y="2259.99" type="dead_end"/>
    <node id="10180972633" x="6408.95" y="3152.16" type="dead_end"/>
    <node id="10180972638" x="6378.99" y="3166.12" type="dead_end"/>
    <node id="10180993079" x="6791.13" y="3931.05" type="priority"/>
    <node id="10181372652" x="11363.72" y="7846.56" type="priority"/>
    <node id="10181372687" x="11646.36" y="8683.68" type="right_before_left"/>
    <node id="10181372709" x="11100.12" y="8811.70" type="priority"/>
    <node id="10181372710" x="11090.51" y="8819.83" type="right_before_left"/>
    <node id="10181372713" x="11003.44" y="8796.52" type="right_before_left"/>
    <node id="10183375997" x="7528.62" y="790.75" type="priority"/>
    <node id="10211258190" x="4464.99" y="4903.93" type="priority"/>
    <node id="10226599715" x="11222.55" y="2346.73" type="priority"/>
    <node id="10273645925" x="9662.64" y="2794.07" type="priority"/>
    <node id="10273645926" x="9666.56" y="2809.43" type="priority"/>
    <node id="10279844454" x="11165.49" y="2414.55" type="dead_end"/>
    <node id="10279844484" x="11067.42" y="2426.08" type="priority"/>
    <node id="10279844487" x="11082.18" y="2427.12" type="priority"/>
    <node id="10279844493" x="11160.98" y="2414.90" type="dead_end"/>
    <node id="10279871070" x="11186.16" y="2464.94" type="dead_end"/>
    <node id="10279905009" x="10983.41" y="2390.64" type="priority"/>
    <node id="10284593865" x="2516.72" y="4362.24" type="priority"/>
    <node id="10289189959" x="9966.71" y="2739.68" type="priority"/>
    <node id="10289189963" x="9962.84" y="2723.60" type="priority"/>
    <node id="10289189964" x="9997.27" y="2718.98" type="priority"/>
    <node id="10289189966" x="10043.65" y="2717.61" type="right_before_left"/>
    <node id="10289189967" x="9964.35" y="2948.57" type="priority"/>
    <node id="10289189977" x="9987.20" y="2849.66" type="dead_end"/>
    <node id="10289189981" x="9988.40" y="2825.56" type="dead_end"/>
    <node id="10289190566" x="9915.68" y="2804.86" type="priority"/>
    <node id="10289190583" x="9733.42" y="2761.22" type="dead_end"/>
    <node id="10289442546" x="9903.14" y="2751.52" type="priority"/>
    <node id="10289442547" x="9939.93" y="2743.71" type="dead_end"/>
    <node id="10289442549" x="9922.47" y="2688.93" type="priority"/>
    <node id="10289442550" x="9960.68" y="2714.88" type="priority"/>
    <node id="10289442556" x="9931.93" y="2709.86" type="dead_end"/>
    <node id="10289442557" x="10100.17" y="2758.86" type="right_before_left"/>
    <node id="10289442560" x="10093.03" y="2722.80" type="dead_end"/>
    <node id="10289442562" x="10088.52" y="2697.09" type="priority"/>
    <node id="10289442567" x="10058.57" y="2704.26" type="priority"/>
    <node id="10289442568" x="10145.84" y="2748.01" type="right_before_left"/>
    <node id="10289442573" x="10134.27" y="2686.14" type="priority"/>
    <node id="10289442574" x="10139.39" y="2710.02" type="dead_end"/>
    <node id="10289442578" x="10104.38" y="2693.30" type="priority"/>
    <node id="10289644353" x="3560.22" y="4147.19" type="priority"/>
    <node id="10289644356" x="3573.57" y="4154.50" type="dead_end"/>
    <node id="10289644368" x="3565.26" y="4124.71" type="dead_end"/>
    <node id="10289644370" x="3335.62" y="4068.60" type="dead_end" fringe="inner">
        <param key="buffer_stop" value="true"/>
    </node>
    <node id="10289644373" x="3315.62" y="4065.95" type="priority"/>
    <node id="10289644395" x="3206.18" y="4124.61" type="priority"/>
    <node id="10289644397" x="3844.82" y="4185.69" type="right_before_left"/>
    <node id="10289644400" x="3823.53" y="4186.29" type="right_before_left"/>
    <node id="10289644450" x="3739.69" y="4215.02" type="dead_end" fringe="inner">
        <param key="buffer_stop" value="true"/>
    </node>
    <node id="10289644451" x="3741.24" y="4208.49" type="dead_end" fringe="inner">
        <param key="buffer_stop" value="true"/>
    </node>
    <node id="10289644452" x="3743.01" y="4201.03" type="dead_end" fringe="inner">
        <param key="buffer_stop" value="true"/>
    </node>
    <node id="10289644453" x="3744.63" y="4194.18" type="dead_end" fringe="inner">
        <param key="buffer_stop" value="true"/>
    </node>
    <node id="10289644454" x="3311.28" y="4068.97" type="dead_end"/>
    <node id="10289644469" x="3621.00" y="4199.74" type="dead_end"/>
    <node id="10289644475" x="3752.38" y="4225.64" type="dead_end"/>
    <node id="10289644480" x="3598.81" y="4194.91" type="dead_end"/>
    <node id="10289644481" x="3742.87" y="4228.07" type="dead_end"/>
    <node id="10289644482" x="3741.79" y="4233.41" type="dead_end"/>
    <node id="10289644483" x="3742.26" y="4231.08" type="priority"/>
    <node id="10289644484" x="3623.21" y="4200.14" type="dead_end"/>
    <node id="10289644485" x="3633.78" y="4138.26" type="dead_end"/>
    <node id="10289644488" x="3630.65" y="4156.57" type="rail_crossing"/>
    <node id="10289644491" x="3312.98" y="4068.72" type="dead_end"/>
    <node id="10289644493" x="3312.53" y="4066.62" type="rail_crossing"/>
    <node id="10289644507" x="3779.18" y="4179.23" type="dead_end"/>
    <node id="10289644508" x="3808.45" y="4181.22" type="dead_end"/>
    <node id="10289644509" x="3808.04" y="4185.59" type="priority"/>
    <node id="10289644510" x="3579.98" y="4128.27" type="dead_end"/>
    <node id="10289644512" x="3770.84" y="4162.95" type="dead_end"/>
    <node id="10289644513" x="3565.26" y="4119.50" type="dead_end"/>
    <node id="10289644515" x="3760.44" y="4156.15" type="dead_end"/>
    <node id="10289644516" x="3546.39" y="4105.75" type="dead_end"/>
    <node id="10289644517" x="3536.61" y="4118.58" type="dead_end"/>
    <node id="10289644518" x="3544.33" y="4108.46" type="rail_crossing"/>
    <node id="10289644519" x="3556.68" y="4120.95" type="dead_end"/>
    <node id="10289644520" x="3542.78" y="4110.49" type="dead_end"/>
    <node id="10289644521" x="3520.38" y="4098.99" type="dead_end"/>
    <node id="10289644529" x="3753.00" y="4175.33" type="dead_end"/>
    <node id="10289644531" x="3630.31" y="4158.56" type="dead_end"/>
    <node id="10289644532" x="3631.18" y="4153.45" type="dead_end"/>
    <node id="10289644541" x="3947.40" y="4162.80" type="dead_end"/>
    <node id="10289644542" x="3889.90" y="4178.35" type="dead_end"/>
    <node id="10289644543" x="3890.97" y="4187.39" type="dead_end"/>
    <node id="10289644544" x="3890.38" y="4182.46" type="priority"/>
    <node id="10289644545" x="3629.00" y="4166.25" type="dead_end"/>
    <node id="10289644547" x="3743.56" y="4179.48" type="dead_end"/>
    <node id="10289644548" x="3776.04" y="4239.34" type="dead_end"/>
    <node id="10289644555" x="3420.92" y="4092.57" type="dead_end"/>
    <node id="10289644556" x="3426.03" y="4093.72" type="dead_end"/>
    <node id="10289644557" x="3427.27" y="4088.85" type="dead_end"/>
    <node id="10289644558" x="3426.59" y="4091.50" type="priority"/>
    <node id="10289644561" x="3790.43" y="4189.06" type="dead_end"/>
    <node id="10289644563" x="3807.68" y="4189.44" type="dead_end"/>
    <node id="10289644566" x="3780.82" y="4244.45" type="dead_end"/>
    <node id="10289644567" x="3829.33" y="4250.40" type="dead_end"/>
    <node id="10289644570" x="3812.85" y="4247.56" type="priority"/>
    <node id="10289644571" x="3798.21" y="4245.03" type="dead_end"/>
    <node id="10289644572" x="3841.35" y="4219.86" type="dead_end"/>
    <node id="10289644574" x="3838.81" y="4219.40" type="priority"/>
    <node id="10289644577" x="3818.41" y="4215.70" type="priority"/>
    <node id="10289644578" x="3803.66" y="4213.04" type="dead_end"/>
    <node id="10289644579" x="3824.82" y="4196.93" type="dead_end"/>
    <node id="10289644580" x="3821.77" y="4196.39" type="priority"/>
    <node id="10289644582" x="3844.69" y="4200.50" type="dead_end"/>
    <node id="10289644583" x="3842.26" y="4200.06" type="priority"/>
    <node id="10289644584" x="3839.10" y="4199.50" type="dead_end"/>
    <node id="10289644585" x="3806.94" y="4193.73" type="dead_end"/>
    <node id="10289644586" x="3817.08" y="4189.91" type="dead_end"/>
    <node id="10289644589" x="3848.05" y="4190.65" type="dead_end"/>
    <node id="10289644592" x="3960.25" y="4174.53" type="dead_end"/>
    <node id="10289644691" x="3782.89" y="4201.27" type="dead_end"/>
    <node id="10289644692" x="3788.14" y="4202.25" type="dead_end"/>
    <node id="10289644693" x="3782.18" y="4236.64" type="dead_end"/>
    <node id="10289644694" x="3776.73" y="4235.49" type="dead_end"/>
    <node id="10291459353" x="9994.82" y="2708.87" type="dead_end"/>
    <node id="10291459355" x="10000.33" y="2731.68" type="dead_end"/>
    <node id="10291459356" x="9970.30" y="2738.83" type="dead_end"/>
    <node id="10291459357" x="10037.71" y="2722.78" type="dead_end"/>
    <node id="10291459359" x="10036.84" y="2719.16" type="dead_end"/>
    <node id="1029366712" x="0.00" y="3234.97" type="dead_end"/>
    <node id="10301285884" x="11659.92" y="2431.59" type="priority"/>
    <node id="10301285885" x="11719.86" y="2399.88" type="priority"/>
    <node id="10301285887" x="11776.02" y="2477.57" type="right_before_left"/>
    <node id="10301285889" x="11783.94" y="2495.72" type="priority"/>
    <node id="10301285890" x="11803.56" y="2475.85" type="dead_end"/>
    <node id="10301285891" x="11816.66" y="2488.37" type="priority"/>
    <node id="10301285892" x="11814.14" y="2463.59" type="dead_end"/>
    <node id="10301285893" x="11838.52" y="2453.99" type="dead_end"/>
    <node id="10301285894" x="11853.08" y="2467.33" type="priority"/>
    <node id="10301285897" x="11903.01" y="2439.61" type="priority"/>
    <node id="10304698469" x="9856.88" y="2565.58" type="priority"/>
    <node id="10304744430" x="11907.26" y="2301.39" type="priority"/>
    <node id="10304744431" x="11869.08" y="2304.00" type="right_before_left"/>
    <node id="10304744432" x="11864.10" y="2289.67" type="dead_end"/>
    <node id="10304744433" x="11825.95" y="2265.94" type="right_before_left"/>
    <node id="10304744434" x="11815.28" y="2270.79" type="priority"/>
    <node id="10316982955" x="12091.53" y="2030.01" type="dead_end"/>
    <node id="1035780969" x="9326.90" y="2312.87" type="priority"/>
    <node id="1035780983" x="9263.40" y="2450.70" type="dead_end"/>
    <node id="1035781098" x="9361.32" y="2333.25" type="right_before_left"/>
    <node id="1035781116" x="7871.27" y="2955.81" type="priority"/>
    <node id="1035781118" x="9298.42" y="2329.61" type="right_before_left"/>
    <node id="1036450709" x="1546.02" y="3235.65" type="dead_end"/>
    <node id="1039350892" x="1831.04" y="4391.54" type="priority"/>
    <node id="1039350903" x="2218.67" y="4425.46" type="priority"/>
    <node id="1039350929" x="2158.50" y="4430.94" type="priority"/>
    <node id="1039351078" x="1407.55" y="4252.64" type="dead_end"/>
    <node id="1039351295" x="1933.26" y="4410.99" type="priority"/>
    <node id="1039351424" x="1783.84" y="4398.38" type="dead_end"/>
    <node id="1039351831" x="1775.85" y="4399.64" type="dead_end"/>
    <node id="1039351935" x="2223.56" y="4420.57" type="priority"/>
    <node id="1039813209" x="5211.29" y="3383.27" type="priority"/>
    <node id="1039813245" x="4549.87" y="3577.00" type="priority"/>
    <node id="1039813303" x="4282.76" y="3543.11" type="priority"/>
    <node id="1039813309" x="4522.36" y="3573.43" type="priority"/>
    <node id="1039813361" x="5434.35" y="3391.47" type="priority"/>
    <node id="1041798909" x="10885.80" y="5482.22" type="priority"/>
    <node id="1041798917" x="10975.70" y="5492.94" type="priority"/>
    <node id="1041798921" x="10974.78" y="5521.63" type="priority"/>
    <node id="1041798938" x="10996.22" y="5503.35" type="priority"/>
    <node id="1043716189" x="6593.10" y="4145.82" type="priority"/>
    <node id="1043716339" x="6570.71" y="4154.91" type="priority"/>
    <node id="1043939644" x="11801.98" y="2802.86" type="right_before_left"/>
    <node id="1043939651" x="11891.99" y="2964.78" type="right_before_left"/>
    <node id="1043939674" x="11835.12" y="2788.76" type="priority"/>
    <node id="1044936044" x="6872.41" y="4023.48" type="priority"/>
    <node id="1044936133" x="8243.31" y="4253.81" type="priority"/>
    <node id="1044936204" x="9232.99" y="4372.45" type="right_before_left"/>
    <node id="1044936257" x="8218.20" y="4231.99" type="priority"/>
    <node id="1044936265" x="7323.72" y="4027.65" type="priority"/>
    <node id="1044936281" x="8864.23" y="4355.40" type="dead_end"/>
    <node id="1044936346" x="6907.65" y="3979.51" type="priority"/>
    <node id="1044936455" x="9239.25" y="4377.89" type="priority"/>
    <node id="1044936475" x="9422.54" y="4277.89" type="priority"/>
    <node id="1044936490" x="8024.47" y="4152.79" type="priority"/>
    <node id="1044936524" x="9312.93" y="4319.65" type="priority"/>
    <node id="1044936551" x="6902.26" y="4003.93" type="priority"/>
    <node id="1044936587" x="6876.89" y="4027.72" type="priority"/>
    <node id="1044936591" x="9489.68" y="4148.48" type="priority"/>
    <node id="1044936596" x="7323.64" y="4031.39" type="priority"/>
    <node id="1044936616" x="8151.54" y="4188.45" type="priority"/>
    <node id="1044936623" x="8163.59" y="4201.60" type="priority"/>
    <node id="1044936653" x="7974.15" y="4146.26" type="priority"/>
    <node id="1044936680" x="8067.41" y="4183.54" type="priority"/>
    <node id="1044936698" x="8864.64" y="4360.11" type="priority"/>
    <node id="1044936721" x="7177.88" y="4023.71" type="priority"/>
    <node id="1044936755" x="8006.78" y="4132.84" type="priority"/>
    <node id="1044937144" x="9387.51" y="4203.74" type="priority"/>
    <node id="1044937162" x="7025.03" y="4026.41" type="priority"/>
    <node id="1044937169" x="8944.00" y="4462.14" type="priority"/>
    <node id="1044937183" x="8110.58" y="4191.68" type="priority"/>
    <node id="1044937230" x="7788.88" y="4061.04" type="priority"/>
    <node id="1044937235" x="8955.66" y="4321.20" type="priority"/>
    <node id="1044937281" x="6131.47" y="4550.90" type="dead_end" fringe="inner">
        <param key="buffer_stop" value="true"/>
    </node>
    <node id="1044937297" x="7983.51" y="4135.10" type="dead_end"/>
    <node id="1044937317" x="8242.18" y="4228.76" type="priority"/>
    <node id="1044937332" x="9293.27" y="4231.96" type="priority"/>
    <node id="1044937361" x="9344.45" y="4242.99" type="priority"/>
    <node id="1044937372" x="8843.31" y="4354.50" type="priority"/>