<?xml version="1.0" encoding="UTF-8"?>

<!-- generated on 2025-04-04 16:23:17 by Eclipse SUMO netconvert Version 1.19.0
<configuration xmlns:xsi="http://www.w3.org/2001/XMLSchema-instance" xsi:noNamespaceSchemaLocation="http://sumo.dlr.de/xsd/netconvertConfiguration.xsd">

    <input>
        <sumo-net-file value="etampes/etampes.net.xml"/>
    </input>

    <output>
        <plain-output-prefix value="etampes/etampes"/>
    </output>

    <processing>
        <geometry.min-radius.fix.railways value="false"/>
        <geometry.max-grade.fix value="false"/>
        <offset.disable-normalization value="true"/>
        <lefthand value="0"/>
    </processing>

    <tls_building>
        <tls.ignore-internal-junction-jam value="1"/>
    </tls_building>

    <junctions>
        <no-turnarounds value="true"/>
        <junctions.corner-detail value="5"/>
        <junctions.limit-turn-speed value="5.50"/>
        <rectangular-lane-cut value="0"/>
    </junctions>

    <pedestrian>
        <walkingareas value="0"/>
    </pedestrian>

</configuration>
-->

<nodes version="1.16" xmlns:xsi="http://www.w3.org/2001/XMLSchema-instance" xsi:noNamespaceSchemaLocation="http://sumo.dlr.de/xsd/nodes_file.xsd">
    <location netOffset="-430361.92,-5357435.97" convBoundary="0.00,0.00,14144.58,11909.22" origBoundary="-1.977429,47.352657,2.316477,48.473635" projParameter="+proj=utm +zone=31 +ellps=WGS84 +datum=WGS84 +units=m +no_defs"/>

    <node id="10082369540" x="6318.86" y="8474.91" type="priority"/>
    <node id="10082385484" x="7478.49" y="8082.67" type="priority"/>
    <node id="10082385485" x="7440.50" y="8109.68" type="priority"/>
    <node id="10082385488" x="7467.66" y="8125.28" type="priority"/>
    <node id="10082385490" x="8254.66" y="7439.19" type="priority"/>
    <node id="10082385491" x="8255.29" y="7445.91" type="right_before_left"/>
    <node id="10082385496" x="8191.03" y="7456.07" type="right_before_left"/>
    <node id="10082385505" x="8746.43" y="7303.69" type="priority"/>
    <node id="10083108658" x="7141.13" y="9251.18" type="priority"/>
    <node id="10083141334" x="6490.97" y="7678.35" type="priority" fringe="inner">
        <param key="buffer_stop" value="true"/>
    </node>
    <node id="10087125032" x="9092.63" y="8732.05" type="priority"/>
    <node id="10087125038" x="9049.95" y="8748.82" type="right_before_left"/>
    <node id="10087125046" x="10051.41" y="9445.31" type="right_before_left"/>
    <node id="10087125047" x="10048.45" y="9482.43" type="right_before_left"/>
    <node id="10087125056" x="10142.27" y="9643.01" type="priority"/>
    <node id="10087125061" x="10102.61" y="9606.34" type="right_before_left"/>
    <node id="10087125067" x="10076.83" y="9600.07" type="right_before_left"/>
    <node id="10087125078" x="10039.12" y="9513.57" type="right_before_left"/>
    <node id="10087125083" x="10009.44" y="9555.22" type="priority"/>
    <node id="10087125085" x="10001.54" y="9576.93" type="right_before_left"/>
    <node id="10087125086" x="10011.53" y="9659.22" type="priority"/>
    <node id="10087125091" x="10012.38" y="9580.26" type="right_before_left"/>
    <node id="10087143948" x="9258.09" y="8901.26" type="priority"/>
    <node id="10087143957" x="9145.63" y="8926.99" type="priority"/>
    <node id="10087143959" x="9302.44" y="9211.22" type="dead_end"/>
    <node id="10087143961" x="9226.27" y="9173.38" type="dead_end"/>
    <node id="10087143964" x="9129.76" y="9098.99" type="dead_end"/>
    <node id="10087143966" x="9214.31" y="9046.67" type="dead_end"/>
    <node id="10087143973" x="9249.57" y="9193.79" type="dead_end"/>
    <node id="10087143975" x="9238.09" y="9173.49" type="dead_end"/>
    <node id="10087612775" x="9018.38" y="8652.48" type="priority"/>
    <node id="10087612778" x="9058.19" y="8591.10" type="priority"/>
    <node id="10087612781" x="9051.08" y="8550.23" type="priority"/>
    <node id="10087626289" x="9089.14" y="8766.49" type="priority"/>
    <node id="10087626292" x="9128.74" y="8791.93" type="priority"/>
    <node id="10087626295" x="9144.10" y="8842.89" type="priority"/>
    <node id="10087626298" x="9120.89" y="8881.01" type="priority"/>
    <node id="10087626931" x="9165.60" y="8674.00" type="priority"/>
    <node id="10087626933" x="9774.54" y="8971.33" type="priority"/>
    <node id="10087663118" x="2465.26" y="7088.44" type="priority"/>
    <node id="10087663121" x="2486.96" y="7040.64" type="priority"/>
    <node id="10087663122" x="6325.02" y="10025.44" type="priority"/>
    <node id="10087663124" x="6232.51" y="9994.22" type="priority"/>
    <node id="10087663125" x="7429.27" y="9110.54" type="priority"/>
    <node id="10087663128" x="8080.80" y="8592.74" type="priority"/>
    <node id="10087663130" x="8035.55" y="8687.27" type="right_before_left"/>
    <node id="10087663131" x="7749.33" y="8067.03" type="priority"/>
    <node id="10087663137" x="7826.37" y="8073.72" type="priority"/>
    <node id="10087663138" x="7886.39" y="8051.14" type="priority"/>
    <node id="10087663139" x="7556.42" y="8079.44" type="priority"/>
    <node id="10087663140" x="6500.13" y="7731.73" type="priority"/>
    <node id="10087663145" x="6981.32" y="7528.12" type="priority"/>
    <node id="10087663148" x="5509.03" y="6876.28" type="priority"/>
    <node id="10087663149" x="5505.87" y="6921.14" type="priority"/>
    <node id="10087663150" x="6113.88" y="6505.12" type="priority"/>
    <node id="10087663151" x="6188.37" y="6634.97" type="priority"/>
    <node id="10087663152" x="6703.14" y="6939.26" type="priority"/>
    <node id="10087663153" x="6641.79" y="6911.88" type="priority"/>
    <node id="10087663154" x="8274.44" y="6910.15" type="priority"/>
    <node id="10087663157" x="8376.37" y="6829.49" type="priority"/>
    <node id="10094729414" x="6919.30" y="8158.21" type="priority"/>
    <node id="10094755119" x="6547.38" y="6256.62" type="priority"/>
    <node id="10094755124" x="6528.79" y="6223.78" type="priority"/>
    <node id="10094755143" x="6494.37" y="5885.07" type="priority"/>
    <node id="10094755144" x="6511.57" y="5890.68" type="priority"/>
    <node id="10094755145" x="6477.90" y="5932.94" type="priority"/>
    <node id="10095114766" x="8460.94" y="9101.33" type="priority"/>
    <node id="10095114770" x="8419.37" y="8999.59" type="right_before_left"/>
    <node id="10095114771" x="8451.73" y="8992.19" type="priority"/>
    <node id="10095114774" x="8335.90" y="9023.35" type="right_before_left"/>
    <node id="10098260939" x="7303.75" y="7487.76" type="dead_end"/>
    <node id="10098260940" x="7323.73" y="7502.89" type="dead_end"/>
    <node id="10098260941" x="7326.19" y="7501.47" type="dead_end"/>
    <node id="10100618359" x="7581.40" y="7012.95" type="right_before_left"/>
    <node id="10102972476" x="7249.50" y="7809.38" type="priority"/>
    <node id="10102972477" x="7236.95" y="7823.25" type="priority"/>
    <node id="10102992410" x="6848.44" y="7043.97" type="right_before_left"/>
    <node id="10102992413" x="6844.85" y="7055.90" type="priority"/>
    <node id="10102992416" x="6821.49" y="7080.64" type="dead_end"/>
    <node id="10103038047" x="8122.72" y="7136.55" type="priority"/>
    <node id="10103063518" x="6851.98" y="7032.22" type="right_before_left"/>
    <node id="10103064753" x="5632.12" y="6811.38" type="priority"/>
    <node id="10103064754" x="5635.66" y="6754.24" type="priority"/>
    <node id="10103114998" x="8483.76" y="9091.56" type="priority"/>
    <node id="10103115004" x="8559.55" y="9059.13" type="priority"/>
    <node id="10105983510" x="7868.23" y="9472.78" type="priority"/>
    <node id="10105983513" x="7919.72" y="9583.66" type="priority"/>
    <node id="10105983515" x="7934.00" y="9487.50" type="right_before_left"/>
    <node id="10106068824" x="7577.18" y="9502.66" type="priority"/>
    <node id="10106068825" x="7566.66" y="9455.63" type="right_before_left"/>
    <node id="10106068826" x="7716.12" y="9432.02" type="right_before_left"/>
    <node id="10106068828" x="7752.31" y="9483.34" type="right_before_left"/>
    <node id="10106068831" x="7695.44" y="9530.77" type="right_before_left"/>
    <node id="10106068832" x="7705.47" y="9570.70" type="right_before_left"/>
    <node id="10106068835" x="7764.94" y="9581.60" type="right_before_left"/>
    <node id="10106068841" x="7671.38" y="9437.02" type="right_before_left"/>
    <node id="10106068850" x="7638.58" y="9440.68" type="right_before_left"/>
    <node id="10106068855" x="7775.53" y="9430.28" type="right_before_left"/>
    <node id="10106068859" x="8062.80" y="9513.63" type="priority"/>
    <node id="10106110515" x="6040.58" y="6454.29" type="priority"/>
    <node id="10106124035" x="7128.16" y="8238.83" type="priority"/>
    <node id="10106124037" x="7100.38" y="8218.89" type="priority"/>
    <node id="10106174066" x="7801.50" y="7616.48" type="priority"/>
    <node id="10106174067" x="7806.35" y="7612.03" type="right_before_left"/>
    <node id="10106220273" x="5227.05" y="6152.63" type="priority"/>
    <node id="10119571562" x="8919.73" y="7009.25" type="dead_end"/>
    <node id="10119571563" x="8776.12" y="7005.44" type="dead_end"/>
    <node id="10119571568" x="8806.78" y="6995.82" type="priority"/>
    <node id="10119571571" x="8746.15" y="7041.18" type="right_before_left"/>
    <node id="10119595641" x="8542.18" y="6729.79" type="priority"/>
    <node id="10143787190" x="7339.82" y="7599.72" type="dead_end"/>
    <node id="10143787191" x="7343.44" y="7594.69" type="dead_end"/>
    <node id="10143787192" x="7338.79" y="7600.92" type="dead_end"/>
    <node id="10143787195" x="7299.19" y="7633.64" type="priority"/>
    <node id="10143787200" x="7373.98" y="7584.95" type="dead_end"/>
    <node id="10143787201" x="7374.62" y="7585.33" type="dead_end"/>
    <node id="10143787203" x="7374.84" y="7583.62" type="dead_end"/>
    <node id="10143787216" x="7328.43" y="7656.25" type="priority"/>
    <node id="10144350518" x="7336.62" y="7646.87" type="dead_end"/>
    <node id="10144350525" x="7341.07" y="7641.53" type="dead_end"/>
    <node id="10144350526" x="7344.45" y="7637.53" type="dead_end"/>
    <node id="1017936618" x="6970.45" y="9873.95" type="priority"/>
    <node id="1017936620" x="6949.00" y="9855.43" type="priority"/>
    <node id="1017936623" x="6939.90" y="9873.64" type="right_before_left"/>
    <node id="10266281243" x="2675.49" y="6562.30" type="priority"/>
    <node id="10271390588" x="3438.20" y="6834.81" type="priority" fringe="inner">
        <param key="buffer_stop" value="true"/>
    </node>
    <node id="10271448631" x="3224.35" y="6975.42" type="priority"/>
    <node id="10271448636" x="3209.06" y="6906.09" type="priority"/>
    <node id="10271448637" x="3131.87" y="6991.74" type="priority"/>
    <node id="10271448673" x="2962.86" y="6950.54" type="priority"/>
    <node id="10271448676" x="2998.02" y="6918.15" type="right_before_left"/>
    <node id="10271448677" x="3070.96" y="7073.58" type="priority"/>
    <node id="10271448685" x="2987.01" y="6907.37" type="priority"/>
    <node id="10271448686" x="2972.85" y="6902.00" type="priority"/>
    <node id="10271448688" x="2934.01" y="6896.35" type="priority"/>
    <node id="10271448689" x="2931.24" y="6884.09" type="right_before_left"/>
    <node id="10271448692" x="4252.81" y="7034.08" type="right_before_left"/>
    <node id="10271448698" x="3615.58" y="7016.45" type="right_before_left"/>
    <node id="10271448710" x="3786.88" y="6911.98" type="priority"/>
    <node id="10271448716" x="4425.29" y="7043.78" type="priority"/>
    <node id="10271448717" x="4386.91" y="7051.16" type="right_before_left"/>
    <node id="10271622161" x="10324.46" y="6375.89" type="right_before_left"/>
    <node id="10271622180" x="10765.97" y="5713.73" type="right_before_left"/>
    <node id="105491538" x="5721.46" y="8351.29" type="priority"/>
    <node id="1066207550" x="8447.02" y="3242.38" type="priority"/>
    <node id="1066207554" x="8411.51" y="3108.91" type="priority"/>
    <node id="10775222455" x="8300.97" y="7394.10" type="priority"/>
    <node id="10775222459" x="8339.27" y="7393.99" type="priority"/>
    <node id="10775609176" x="8708.34" y="9895.06" type="priority"/>
    <node id="10775609177" x="8576.74" y="9550.31" type="priority"/>
    <node id="10798844165" x="2553.36" y="7006.33" type="priority"/>
    <node id="10799992778" x="7931.05" y="7668.63" type="priority"/>
    <node id="10826300391" x="5852.85" y="8586.97" type="priority"/>
    <node id="10903666493" x="7421.35" y="7099.84" type="priority"/>
    <node id="10903666495" x="7755.40" y="7227.03" type="priority"/>
    <node id="10903666496" x="7404.54" y="7096.92" type="dead_end"/>
    <node id="10903712463" x="7445.22" y="6906.39" type="priority"/>
    <node id="10903712466" x="7428.27" y="6857.73" type="priority"/>
    <node id="10903712470" x="7493.96" y="6880.57" type="priority"/>
    <node id="10903712476" x="7399.12" y="6927.05" type="right_before_left"/>
    <node id="10903712480" x="7470.45" y="6920.54" type="right_before_left"/>
    <node id="10903712490" x="7440.70" y="6888.36" type="priority"/>
    <node id="10903712492" x="7435.53" y="6903.59" type="priority"/>
    <node id="10903729286" x="7334.93" y="6996.24" type="dead_end"/>
    <node id="10903729287" x="7356.49" y="6988.62" type="dead_end"/>
    <node id="10903729289" x="7355.33" y="6991.18" type="dead_end"/>
    <node id="10903729297" x="7351.69" y="7000.17" type="dead_end"/>
    <node id="10903729298" x="7342.61" y="6985.50" type="dead_end"/>
    <node id="10903733706" x="7428.11" y="6994.38" type="priority"/>
    <node id="10903753510" x="7598.14" y="7124.62" type="priority"/>
    <node id="10904458002" x="7922.84" y="7387.39" type="right_before_left"/>
    <node id="10904460110" x="7923.31" y="7407.37" type="priority"/>
    <node id="10904613331" x="7378.87" y="6971.17" type="dead_end"/>
    <node id="10908496627" x="6747.96" y="8070.75" type="priority"/>
    <node id="10908496630" x="6731.41" y="8089.87" type="priority"/>
    <node id="10908496631" x="6825.34" y="8080.67" type="priority"/>
    <node id="10908496634" x="6820.65" y="8147.46" type="priority"/>
    <node id="10956341710" x="6489.39" y="8883.31" type="right_before_left"/>
    <node id="10956341716" x="6534.75" y="8299.11" type="priority"/>
    <node id="10956341730" x="6561.30" y="8332.15" type="right_before_left"/>
    <node id="10956341731" x="6441.20" y="8331.79" type="right_before_left"/>
    <node id="10956341736" x="6571.98" y="8347.27" type="right_before_left"/>
    <node id="10956341737" x="6571.67" y="8359.77" type="priority"/>
    <node id="10956341738" x="6442.91" y="8265.13" type="priority"/>
    <node id="10956341740" x="6442.48" y="8363.57" type="priority"/>
    <node id="10961285751" x="9698.22" y="9293.58" type="right_before_left"/>
    <node id="11071241532" x="6463.82" y="6655.33" type="dead_end"/>
    <node id="11071241537" x="6445.82" y="6660.25" type="dead_end"/>
    <node id="11071241539" x="6427.94" y="6715.96" type="dead_end"/>
    <node id="11071241543" x="6440.66" y="6720.25" type="dead_end"/>
    <node id="11071241551" x="6457.86" y="6666.03" type="dead_end"/>
    <node id="11071241559" x="6390.68" y="6809.32" type="dead_end"/>
    <node id="11071502956" x="7759.95" y="8549.16" type="priority"/>
    <node id="11071502961" x="7812.32" y="8522.08" type="priority"/>
    <node id="11071502966" x="7824.61" y="8592.23" type="right_before_left"/>
    <node id="11071502970" x="7912.90" y="8613.06" type="priority"/>
    <node id="11146962071" x="7510.35" y="7858.17" type="dead_end"/>
    <node id="11146962082" x="7381.35" y="7828.06" type="dead_end"/>
    <node id="11146962084" x="7389.76" y="7758.79" type="dead_end"/>
    <node id="11146962086" x="7385.20" y="7770.52" type="dead_end"/>
    <node id="1120605553-AddedOffRampNode" x="5613.47" y="6046.94" type="priority"/>
    <node id="11217615088" x="2539.79" y="3702.45" type="priority"/>
    <node id="11217821561" x="6481.58" y="6528.48" type="priority"/>
    <node id="11217821564" x="6575.75" y="6528.64" type="priority"/>
    <node id="11217821749" x="6560.62" y="7096.86" type="priority"/>
    <node id="11217821750" x="6533.65" y="7093.11" type="right_before_left"/>
    <node id="11217821751" x="6575.46" y="7117.90" type="priority" fringe="inner">
        <param key="buffer_stop" value="true"/>
    </node>
    <node id="11217821752" x="6554.15" y="7106.77" type="right_before_left"/>
    <node id="11217821756" x="6522.41" y="7125.07" type="right_before_left"/>
    <node id="11217821758" x="6565.70" y="7141.70" type="priority" fringe="inner">
        <param key="buffer_stop" value="true"/>
    </node>
    <node id="11217821769" x="6532.11" y="7172.65" type="priority" fringe="inner">
        <param key="buffer_stop" value="true"/>
    </node>
    <node id="11217822856" x="7782.38" y="8023.69" type="right_before_left"/>
    <node id="11217822857" x="7662.61" y="8001.88" type="right_before_left"/>
    <node id="11224884033" x="9086.19" y="8407.92" type="priority"/>
    <node id="11224884034" x="9064.51" y="8418.09" type="priority"/>
    <node id="11262543028" x="6844.84" y="6717.29" type="right_before_left"/>
    <node id="11262543030" x="6910.20" y="6740.00" type="right_before_left"/>
    <node id="11262543969" x="5471.35" y="5646.34" type="right_before_left"/>
    <node id="11283056871" x="6184.03" y="9752.01" type="priority"/>
    <node id="11381174881" x="7438.60" y="6889.15" type="priority"/>
    <node id="11403192395" x="7220.07" y="6943.29" type="priority"/>
    <node id="11403192397" x="7203.81" y="6981.20" type="right_before_left"/>
    <node id="11403192400" x="7218.88" y="6987.52" type="right_before_left"/>
    <node id="11403192404" x="7234.26" y="6949.28" type="priority"/>
    <node id="11421350475" x="1457.21" y="9349.49" type="priority"/>
    <node id="11421532898" x="6621.13" y="10023.67" type="priority"/>
    <node id="11421532909" x="6782.15" y="10092.13" type="priority"/>
    <node id="11421532910" x="6814.56" y="9886.09" type="priority"/>
    <node id="11421532911" x="6799.40" y="9982.44" type="priority"/>
    <node id="11421532914" x="6862.38" y="9967.70" type="priority"/>
    <node id="11421540028" x="6049.60" y="8127.25" type="right_before_left"/>
    <node id="11421540030" x="6046.57" y="8139.41" type="priority"/>
    <node id="11421540042" x="6040.18" y="8166.38" type="right_before_left"/>
    <node id="11421540054" x="6508.54" y="8164.15" type="right_before_left"/>
    <node id="11421540056" x="6475.58" y="8185.23" type="right_before_left"/>
    <node id="11421540057" x="6475.13" y="8165.31" type="right_before_left"/>
    <node id="11421540058" x="6492.48" y="8164.71" type="right_before_left"/>
    <node id="11421540059" x="6493.28" y="8187.98" type="right_before_left"/>
    <node id="11421549673" x="5848.06" y="8250.49" type="right_before_left"/>
    <node id="11447608749" x="8805.42" y="8688.63" type="dead_end"/>
    <node id="11447871896" x="6269.43" y="8806.23" type="dead_end"/>
    <node id="11447871902" x="6410.05" y="8709.85" type="dead_end"/>
    <node id="11447871903" x="6424.81" y="8683.42" type="priority"/>
    <node id="11447871904" x="6326.36" y="8476.17" type="dead_end"/>
    <node id="11447871910" x="6310.85" y="8556.13" type="dead_end"/>
    <node id="11447871914" x="6310.78" y="8480.59" type="dead_end"/>
    <node id="11447871915" x="6265.40" y="8487.96" type="dead_end"/>
    <node id="11447871925" x="6269.53" y="8487.29" type="dead_end"/>
    <node id="11447871930" x="6292.42" y="8483.57" type="dead_end"/>
    <node id="11447871931" x="6335.51" y="8475.70" type="dead_end"/>
    <node id="11447871939" x="6356.79" y="8387.51" type="dead_end"/>
    <node id="11447871940" x="6335.69" y="8390.99" type="dead_end"/>
    <node id="11447871947" x="6300.05" y="8368.43" type="dead_end"/>
    <node id="11447871956" x="6640.06" y="8450.55" type="dead_end"/>
    <node id="11447871961" x="6631.39" y="8470.63" type="dead_end"/>
    <node id="11447871962" x="6630.95" y="8450.81" type="dead_end"/>
    <node id="11447884473" x="6630.36" y="8466.98" type="dead_end"/>
    <node id="11447884481" x="6439.01" y="8628.81" type="dead_end"/>
    <node id="11449961187" x="5893.26" y="8160.93" type="dead_end"/>
    <node id="11449961188" x="5913.14" y="8103.16" type="dead_end"/>
    <node id="11449961189" x="5951.50" y="7963.75" type="dead_end"/>
    <node id="11449961194" x="5792.68" y="8129.88" type="priority"/>
    <node id="11449961196" x="5832.28" y="7917.86" type="right_before_left"/>
    <node id="11449961199" x="5793.88" y="8020.74" type="priority"/>
    <node id="11449961200" x="5829.36" y="7931.32" type="right_before_left"/>
    <node id="11449961203" x="5771.22" y="7948.25" type="right_before_left"/>
    <node id="11449961206" x="5814.64" y="7927.09" type="right_before_left"/>
    <node id="11449961207" x="5806.70" y="7958.04" type="right_before_left"/>
    <node id="11449961208" x="5770.10" y="7931.43" type="right_before_left"/>
    <node id="11449961209" x="5810.72" y="7942.37" type="right_before_left"/>
    <node id="11449961210" x="5918.31" y="7942.12" type="right_before_left"/>
    <node id="11449961212" x="5899.42" y="7962.80" type="priority"/>
    <node id="11449961213" x="6216.48" y="7998.15" type="priority"/>
    <node id="11519599174" x="6610.70" y="5573.34" type="priority"/>
    <node id="11545842248" x="5464.64" y="6136.59" type="priority"/>
    <node id="11724876149" x="7340.91" y="7670.80" type="dead_end"/>
    <node id="11724876150" x="7385.91" y="7700.42" type="dead_end"/>
    <node id="11724883992" x="7430.45" y="7719.11" type="dead_end"/>
    <node id="11724883996" x="7471.60" y="7716.14" type="dead_end"/>
    <node id="11724884003" x="7514.42" y="7754.05" type="dead_end"/>
    <node id="11724884006" x="7472.32" y="7733.79" type="dead_end"/>
    <node id="11724884007" x="7469.81" y="7730.20" type="dead_end"/>
    <node id="11724884008" x="7466.33" y="7725.94" type="dead_end"/>
    <node id="11730920315" x="6034.44" y="7636.05" type="priority"/>
    <node id="11730920318" x="6095.28" y="7618.26" type="priority"/>
    <node id="11730920319" x="6098.03" y="7601.43" type="priority"/>
    <node id="11730920328" x="6094.55" y="7622.34" type="dead_end"/>
    <node id="1179812926#1-AddedOnRampNode" x="5312.65" y="5528.64" type="priority"/>
    <node id="11813185055" x="5711.68" y="7147.67" type="right_before_left"/>
    <node id="11813218575" x="5701.12" y="7125.71" type="right_before_left"/>
    <node id="11813218578" x="5689.91" y="7104.93" type="priority"/>
    <node id="11813218593" x="5697.18" y="7121.52" type="right_before_left"/>
    <node id="11813218596" x="5674.03" y="7095.37" type="priority" fringe="inner">
        <param key="buffer_stop" value="true"/>
    </node>
    <node id="11813218597" x="5706.10" y="7074.54" type="right_before_left"/>
    <node id="11813218598" x="5632.51" y="7082.63" type="priority"/>
    <node id="11813218600" x="5706.59" y="7092.73" type="priority" fringe="inner">
        <param key="buffer_stop" value="true"/>
    </node>
    <node id="11813218609" x="5673.12" y="7045.12" type="priority"/>
    <node id="11813218610" x="5633.33" y="7076.34" type="priority"/>
    <node id="11813218614" x="5695.62" y="7056.99" type="right_before_left"/>
    <node id="11919740758" x="6271.08" y="4718.28" type="priority"/>
    <node id="11919740761" x="6302.82" y="4816.00" type="priority"/>
    <node id="11919740766" x="6273.78" y="4899.71" type="priority"/>
    <node id="11919757871" x="6250.68" y="4905.20" type="priority"/>
    <node id="12044058616" x="8234.98" y="7483.92" type="priority"/>
    <node id="12044058617" x="8289.60" y="7431.08" type="priority"/>
    <node id="12044063255" x="6745.99" y="6643.61" type="priority"/>
    <node id="12044063267" x="5080.08" y="4937.66" type="priority"/>
    <node id="12044069363" x="3910.54" y="2932.99" type="dead_end"/>
    <node id="12044069364" x="3997.85" y="3022.14" type="priority"/>
    <node id="12044083295" x="2002.12" y="1310.27" type="dead_end"/>
    <node id="12044095473" x="5042.69" y="4859.71" type="priority"/>
    <node id="12044095474" x="5104.16" y="4987.23" type="priority"/>
    <node id="12044095475" x="5050.83" y="4854.21" type="priority"/>
    <node id="12044095479" x="5117.98" y="4887.63" type="priority"/>
    <node id="12044095481" x="4962.79" y="4679.22" type="right_before_left"/>
    <node id="12044095486" x="4810.11" y="4425.08" type="priority"/>
    <node id="12044165569" x="5014.68" y="4786.99" type="priority"/>
    <node id="12044165571" x="5009.21" y="4669.95" type="priority"/>
    <node id="12044165577" x="6829.76" y="6674.64" type="priority"/>
    <node id="1209790512" x="8375.88" y="8367.77" type="right_before_left"/>
    <node id="1209790517" x="8348.74" y="8437.56" type="right_before_left"/>
    <node id="1209790523" x="8385.20" y="8412.75" type="right_before_left"/>
    <node id="1209790527" x="8345.58" y="8421.34" type="right_before_left"/>
    <node id="1209790532" x="8366.53" y="8452.17" type="priority"/>
    <node id="1209790537" x="8382.01" y="8397.41" type="right_before_left"/>
    <node id="1209790539" x="8342.51" y="8405.56" type="right_before_left"/>
    <node id="1209790541" x="8378.99" y="8382.78" type="right_before_left"/>
    <node id="1209790547" x="8351.70" y="8452.23" type="priority"/>
    <node id="1209790550" x="8284.40" y="8416.50" type="priority"/>
    <node id="1209790551" x="8339.67" y="8390.97" type="right_before_left"/>
    <node id="1209790553" x="8388.65" y="8429.35" type="right_before_left"/>
    <node id="1209790556" x="8293.51" y="8404.48" type="right_before_left"/>
    <node id="1209799211" x="8906.51" y="6174.93" type="priority"/>
    <node id="1213893921" x="10322.18" y="7507.92" type="priority"/>
    <node id="12216656204" x="6657.71" y="9873.23" type="priority"/>
    <node id="12216656205" x="6983.59" y="9881.58" type="priority"/>
    <node id="12323302623" x="6471.49" y="8204.96" type="priority"/>
    <node id="12323302637" x="5779.03" y="8489.99" type="priority"/>
    <node id="12323302906" x="6704.14" y="8684.71" type="priority"/>
    <node id="12337048715" x="6366.90" y="4988.16" type="priority"/>
    <node id="12337048716" x="6335.11" y="5002.75" type="priority"/>
    <node id="12710346674" x="8655.81" y="3592.82" type="priority"/>
    <node id="12710346685" x="8678.42" y="3365.05" type="priority"/>
    <node id="12710346692" x="8619.08" y="3518.59" type="right_before_left"/>
    <node id="12710351663" x="6233.36" y="3925.13" type="priority"/>
    <node id="12710462888" x="6751.43" y="5918.50" type="right_before_left"/>
    <node id="12710462891" x="6753.07" y="5950.06" type="priority"/>
    <node id="12710462896" x="6753.54" y="5926.14" type="priority"/>
    <node id="12710462898" x="6766.39" y="5929.37" type="dead_end"/>
    <node id="12710462899" x="6733.47" y="5932.04" type="dead_end"/>
    <node id="12710462900" x="6753.95" y="5927.16" type="priority"/>
    <node id="12710511590" x="6560.37" y="6037.81" type="priority"/>
    <node id="12710511591" x="6636.36" y="6040.41" type="priority"/>
    <node id="12710511592" x="6593.12" y="6052.20" type="right_before_left"/>
    <node id="12710511594" x="6568.38" y="6013.22" type="right_before_left"/>
    <node id="12710511595" x="6621.52" y="6083.59" type="priority"/>
    <node id="12710526911" x="6761.30" y="6005.34" type="dead_end"/>
    <node id="12710526913" x="6790.26" y="6047.01" type="dead_end"/>
    <node id="12710526915" x="6778.78" y="5996.86" type="dead_end"/>
    <node id="12710526916" x="6771.45" y="5964.14" type="dead_end"/>
    <node id="12710526917" x="6770.09" y="5964.60" type="dead_end"/>
    <node id="12710526951" x="6843.42" y="6130.04" type="right_before_left"/>
    <node id="12710526955" x="6822.37" y="6040.56" type="right_before_left"/>
    <node id="12710526980" x="6668.79" y="6089.91" type="right_before_left"/>
    <node id="12710526983" x="6685.75" y="6071.59" type="right_before_left"/>
    <node id="12710526985" x="6694.63" y="6049.71" type="priority"/>
    <node id="12710526986" x="6680.98" y="6056.79" type="priority"/>
    <node id="12710527035" x="6707.79" y="6616.69" type="priority"/>
    <node id="12710527036" x="6697.01" y="6596.08" type="priority"/>
    <node id="12717207927" x="8181.37" y="7439.66" type="priority"/>
    <node id="1288972502" x="3712.82" y="859.33" type="priority"/>
    <node id="1300306383#1-AddedOffRampNode" x="5273.19" y="5421.04" type="priority"/>
    <node id="1304096275" x="4650.58" y="9357.37" type="right_before_left"/>
    <node id="1304096309" x="4579.99" y="9352.01" type="right_before_left"/>
    <node id="1308131306" x="6133.10" y="6411.58" type="priority"/>
    <node id="1308133301" x="8389.27" y="8206.55" type="right_before_left"/>
    <node id="1308133324" x="8392.67" y="8173.18" type="right_before_left"/>
    <node id="1308221711" x="7682.13" y="7274.81" type="dead_end"/>
    <node id="1322448385" x="6113.69" y="6287.92" type="priority"/>
    <node id="1322448387" x="6051.10" y="6291.07" type="right_before_left"/>
    <node id="1322448396" x="6142.01" y="6395.89" type="priority"/>
    <node id="1322661327" x="6008.20" y="7733.89" type="priority"/>
    <node id="1322661337" x="6158.70" y="7688.84" type="priority" fringe="inner">
        <param key="buffer_stop" value="true"/>
    </node>
    <node id="1322661349" x="5856.08" y="7793.04" type="priority"/>
    <node id="1322661358" x="6223.15" y="6523.35" type="priority"/>
    <node id="1324672324" x="5741.33" y="8560.33" type="right_before_left"/>
    <node id="1324672952" x="5600.32" y="8792.15" type="right_before_left"/>
    <node id="1324672955" x="5766.75" y="9198.75" type="priority"/>
    <node id="1324672966" x="5202.00" y="9141.60" type="priority"/>
    <node id="1325106224" x="3704.94" y="9954.72" type="priority"/>
    <node id="1325106236" x="4051.82" y="10194.22" type="priority"/>