<?xml version="1.0" encoding="UTF-8"?>

<!-- generated on 2025-04-04 16:23:17 by Eclipse SUMO netconvert Version 1.19.0
<configuration xmlns:xsi="http://www.w3.org/2001/XMLSchema-instance" xsi:noNamespaceSchemaLocation="http://sumo.dlr.de/xsd/netconvertConfiguration.xsd">

    <input>
        <sumo-net-file value="etampes/etampes.net.xml"/>
    </input>

    <output>
        <plain-output-prefix value="etampes/etampes"/>
    </output>

    <processing>
        <geometry.min-radius.fix.railways value="false"/>
        <geometry.max-grade.fix value="false"/>
        <offset.disable-normalization value="true"/>
        <lefthand value="0"/>
    </processing>

    <tls_building>
        <tls.ignore-internal-junction-jam value="1"/>
    </tls_building>

    <junctions>
        <no-turnarounds value="true"/>
        <junctions.corner-detail value="5"/>
        <junctions.limit-turn-speed value="5.50"/>
        <rectangular-lane-cut value="0"/>
    </junctions>

    <pedestrian>
        <walkingareas value="0"/>
    </pedestrian>

</configuration>
-->

<edges version="1.16" xmlns:xsi="http://www.w3.org/2001/XMLSchema-instance" xsi:noNamespaceSchemaLocation="http://sumo.dlr.de/xsd/edges_file.xsd">
    <location netOffset="-430361.92,-5357435.97" convBoundary="0.00,0.00,14144.58,11909.22" origBoundary="-1.977429,47.352657,2.316477,48.473635" projParameter="+proj=utm +zone=31 +ellps=WGS84 +datum=WGS84 +units=m +no_defs"/>

    <edge id="-1025826345" from="976039341" to="9458006120" priority="1" type="highway.service" numLanes="1" speed="5.56" shape="6174.22,8212.03 6172.51,8199.58 6168.24,8192.41 6122.81,8180.76" allow="pedestrian delivery bicycle"/>
    <edge id="-1036374550" from="2318242843" to="248542628" priority="12" type="highway.primary" numLanes="2" speed="13.89" disallow="tram rail_urban rail rail_electric rail_fast ship">
        <param key="ref" value="D 191"/>
    </edge>
    <edge id="-1036374554" from="1929544990" to="2318242892" priority="12" type="highway.primary" numLanes="2" speed="22.22" shape="10645.52,7622.18 10657.77,7634.14 10673.26,7649.27" disallow="tram rail_urban rail rail_electric rail_fast ship">
        <param key="ref" value="D 191"/>
    </edge>
    <edge id="-1036374556" from="2318242851" to="9548142194" priority="12" type="highway.primary" numLanes="1" speed="13.89" shape="10649.55,7529.50 10674.01,7519.16 10700.75,7506.44 10738.54,7486.83" disallow="tram rail_urban rail rail_electric rail_fast ship">
        <param key="ref" value="D 837"/>
    </edge>
    <edge id="-1037801534" from="9558969456" to="2318242843" priority="12" type="highway.primary" numLanes="2" speed="19.44" shape="10405.93,7505.88 10422.23,7507.44 10455.65,7512.85" disallow="tram rail_urban rail rail_electric rail_fast ship">
        <param key="ref" value="D 191"/>
    </edge>
    <edge id="-1040754388" from="cluster_340400355_9582409681" to="9582409670" priority="1" type="highway.track" numLanes="1" speed="5.56" shape="3517.64,10213.39 3574.63,10139.85" allow="pedestrian motorcycle moped bicycle"/>
    <edge id="-1040754391" from="9582442763" to="300024026" priority="1" type="highway.service" numLanes="1" speed="5.56" allow="pedestrian delivery bicycle"/>
    <edge id="-104915431" from="1209790556" to="cluster_1209790536_1209790540" priority="1" type="highway.service" numLanes="1" speed="5.56" shape="8293.51,8404.48 8288.63,8378.95 8335.50,8369.59" allow="pedestrian delivery bicycle"/>
    <edge id="-104915432" from="1209790539" to="1209790537" priority="1" type="highway.service" numLanes="1" speed="5.56" allow="pedestrian delivery bicycle"/>
    <edge id="-104915435#0" from="1209790517" to="1209790547" priority="1" type="highway.service" numLanes="1" speed="5.56" allow="pedestrian delivery bicycle"/>
    <edge id="-104915435#1" from="1209790527" to="1209790517" priority="1" type="highway.service" numLanes="1" speed="5.56" allow="pedestrian delivery bicycle"/>
    <edge id="-104915435#10" from="1209790553" to="1209790523" priority="1" type="highway.service" numLanes="1" speed="5.56" allow="pedestrian delivery bicycle"/>
    <edge id="-104915435#11" from="1209790532" to="1209790553" priority="1" type="highway.service" numLanes="1" speed="5.56" shape="8366.53,8452.17 8392.26,8446.74 8388.65,8429.35" allow="pedestrian delivery bicycle"/>
    <edge id="-104915435#2" from="1209790539" to="1209790527" priority="1" type="highway.service" numLanes="1" speed="5.56" allow="pedestrian delivery bicycle"/>
    <edge id="-104915435#3" from="1209790551" to="1209790539" priority="1" type="highway.service" numLanes="1" speed="5.56" allow="pedestrian delivery bicycle"/>
    <edge id="-104915435#4" from="cluster_1209790536_1209790540" to="1209790551" priority="1" type="highway.service" numLanes="1" speed="5.56" shape="8336.75,8375.98 8339.67,8390.97" allow="pedestrian delivery bicycle"/>
    <edge id="-104915435#6" from="1209790512" to="cluster_1209790536_1209790540" priority="1" type="highway.service" numLanes="1" speed="5.56" shape="8375.88,8367.77 8372.38,8350.83 8333.47,8359.14 8335.50,8369.59" allow="pedestrian delivery bicycle"/>
    <edge id="-104915435#7" from="1209790541" to="1209790512" priority="1" type="highway.service" numLanes="1" speed="5.56" allow="pedestrian delivery bicycle"/>
    <edge id="-104915435#8" from="1209790537" to="1209790541" priority="1" type="highway.service" numLanes="1" speed="5.56" allow="pedestrian delivery bicycle"/>
    <edge id="-104915435#9" from="1209790523" to="1209790537" priority="1" type="highway.service" numLanes="1" speed="5.56" allow="pedestrian delivery bicycle"/>
    <edge id="-104915440" from="1209790553" to="1209790517" priority="1" type="highway.service" numLanes="1" speed="5.56" allow="pedestrian delivery bicycle"/>
    <edge id="-104915441" from="1209790551" to="1209790541" priority="1" type="highway.service" numLanes="1" speed="5.56" allow="pedestrian delivery bicycle"/>
    <edge id="-104915445" from="1209790527" to="1209790523" priority="1" type="highway.service" numLanes="1" speed="5.56" allow="pedestrian delivery bicycle"/>
    <edge id="-104915450" from="cluster_1209790536_1209790540" to="1209790512" priority="1" type="highway.service" numLanes="1" speed="5.56" shape="8336.75,8375.98 8375.88,8367.77" allow="pedestrian delivery bicycle"/>
    <edge id="-1052194667" from="4454043442" to="9669638619" priority="1" type="highway.path" numLanes="1" speed="5.56" shape="10018.99,9019.92 9969.46,9035.62 9934.64,9054.29 9942.92,9096.52 9953.61,9170.18 9966.75,9249.97" width="2.00" allow="pedestrian bicycle"/>
    <edge id="-1052194668" from="9669638620" to="9669638625" priority="1" type="highway.path" numLanes="1" speed="5.56" shape="10034.70,9043.60 10089.75,9006.57 10101.50,9029.79 10123.84,9041.81 10121.29,9062.81 10051.14,9124.48" width="2.00" allow="pedestrian bicycle"/>
    <edge id="-105353213#0" from="4253381902" to="1213893921" priority="12" type="highway.primary" numLanes="1" speed="22.22" shape="9956.75,7493.98 10115.59,7519.02 10159.41,7520.45 10265.52,7513.42 10322.18,7507.92" disallow="tram rail_urban rail rail_electric rail_fast ship">
        <param key="ref" value="D 191"/>
    </edge>
    <edge id="-105353213#1" from="248542654" to="4253381902" priority="12" type="highway.primary" numLanes="1" speed="22.22" disallow="tram rail_urban rail rail_electric rail_fast ship">
        <param key="ref" value="D 191"/>
    </edge>
    <edge id="-105353222#0" from="2318242892" to="1929545023" priority="12" type="highway.primary" numLanes="2" speed="22.22" shape="10673.26,7649.27 10740.32,7717.29 10805.09,7781.59 10820.77,7797.93" disallow="tram rail_urban rail rail_electric rail_fast ship">
        <param key="ref" value="D 191"/>
    </edge>
    <edge id="-1061105470" from="5364746884" to="5364746883" priority="3" type="highway.residential" numLanes="1" speed="13.89" disallow="tram rail_urban rail rail_electric rail_fast ship"/>
    <edge id="-1061105471" from="5364746884" to="5364746911" priority="3" type="highway.residential" numLanes="1" speed="13.89" disallow="tram rail_urban rail rail_electric rail_fast ship"/>
    <edge id="-1061105472" from="5364746910" to="5364746909" priority="3" type="highway.residential" numLanes="1" speed="8.33" shape="6508.89,8704.22 6494.45,8755.65 6491.58,8765.89" disallow="tram rail_urban rail rail_electric rail_fast ship"/>
    <edge id="-1061105473" from="977231854" to="5364746910" priority="3" type="highway.residential" numLanes="1" speed="8.33" shape="6547.14,8712.25 6518.45,8706.22 6508.89,8704.22" disallow="tram rail_urban rail rail_electric rail_fast ship"/>
    <edge id="-1061105474#0" from="5364322874" to="977231854" priority="3" type="highway.residential" numLanes="1" speed="8.33" disallow="tram rail_urban rail rail_electric rail_fast ship">
        <param key="ref" value="CR 50"/>
    </edge>
    <edge id="-1061105474#1" from="518372052" to="5364322874" priority="3" type="highway.residential" numLanes="1" speed="8.33" disallow="tram rail_urban rail rail_electric rail_fast ship">
        <param key="ref" value="CR 50"/>
    </edge>
    <edge id="-1061105474#2" from="cluster_11447791752_5364748541" to="518372052" priority="3" type="highway.residential" numLanes="1" speed="8.33" shape="6634.18,8477.33 6622.41,8501.07 6611.54,8520.54 6609.30,8525.85 6602.19,8545.77 6574.78,8626.29" disallow="tram rail_urban rail rail_electric rail_fast ship">
        <param key="ref" value="CR 50"/>
    </edge>
    <edge id="-1066865834" from="2122863870" to="983464087" priority="4" type="highway.unclassified" numLanes="1" speed="13.89" shape="4188.58,6563.98 4187.14,6559.79 4181.24,6542.84 4178.64,6535.37 4177.27,6519.96 4180.15,6503.52 4190.62,6490.72 4206.94,6477.47 4270.92,6432.01 4299.05,6393.70 4308.29,6385.48 4319.93,6379.61 4333.17,6374.90 4337.89,6371.49 4341.37,6365.74" disallow="tram rail_urban rail rail_electric rail_fast ship"/>
    <edge id="-1066933279#0" from="975886850" to="975885504" priority="4" type="highway.unclassified" numLanes="1" speed="13.89" disallow="tram rail_urban rail rail_electric rail_fast ship">
        <param key="ref" value="CR 25"/>
    </edge>
    <edge id="-1066933279#1" from="975886855" to="975886850" priority="4" type="highway.unclassified" numLanes="1" speed="13.89" shape="5080.23,6668.91 5065.84,6674.53 5028.69,6688.41 5016.83,6693.29 5012.53,6698.49 5009.71,6705.45" disallow="tram rail_urban rail rail_electric rail_fast ship">
        <param key="ref" value="CR 25"/>
    </edge>
    <edge id="-1066963201#0" from="4475853521" to="1931195356" priority="1" type="highway.track" numLanes="1" speed="5.56" shape="11037.53,9582.64 11066.78,9560.51 11152.11,9466.37 11157.51,9453.79 11156.37,9429.92 11151.96,9408.35 11151.96,9399.84 11156.70,9388.57 11156.71,9370.42 11168.89,9327.73" allow="pedestrian motorcycle moped bicycle"/>
    <edge id="-1066963201#1" from="1931136862" to="4475853521" priority="1" type="highway.track" numLanes="1" speed="5.56" shape="10853.86,9730.24 10891.18,9688.88 10950.81,9649.64 11009.69,9603.68 11037.53,9582.64" allow="pedestrian motorcycle moped bicycle"/>
    <edge id="-1066963202" from="976140134" to="cluster_976140131_976140133" priority="3" type="highway.residential" numLanes="1" speed="13.89" shape="9909.66,9278.59 9901.55,9251.72 9898.67,9246.52" disallow="tram rail_urban rail rail_electric rail_fast ship"/>
    <edge id="-1067456668" from="2910888091" to="2966140090" priority="1" type="highway.track" numLanes="1" speed="5.56" shape="7299.08,4616.08 7261.92,4597.44 7220.87,4577.48 7171.39,4560.18 7155.94,4558.67 7081.82,4555.83 7017.80,4557.99 6950.01,4563.66 6885.56,4581.93" allow="pedestrian motorcycle moped bicycle"/>
    <edge id="-1067456669#0" from="2988535418" to="2910888091" priority="1" type="highway.track" numLanes="1" speed="5.56" shape="7687.94,4912.75 7684.53,4907.35 7674.35,4893.87 7660.84,4880.94 7649.68,4867.00 7604.62,4816.10 7584.66,4794.99 7562.68,4774.05 7537.70,4752.22 7511.24,4733.11 7487.28,4718.21 7453.70,4697.07 7407.99,4670.65 7375.29,4653.92 7361.54,4645.82 7328.12,4629.37 7299.08,4616.08" allow="pedestrian motorcycle moped bicycle"/>
    <edge id="-1067456669#1" from="4185588814" to="2988535418" priority="1" type="highway.track" numLanes="1" speed="5.56" shape="7887.67,5173.18 7797.52,5235.18 7793.00,5237.98 7788.54,5236.85 7782.32,5210.78 7763.31,5145.24 7756.36,5114.94 7741.85,5081.00 7726.39,5032.75 7708.14,4973.20 7688.90,4914.26 7687.94,4912.75" allow="pedestrian motorcycle moped bicycle"/>
    <edge id="-1067456670" from="4185588876" to="1964113136" priority="1" type="highway.track" numLanes="1" speed="5.56" allow="pedestrian motorcycle moped bicycle"/>
    <edge id="-1067456671" from="4185588876" to="2988535783" priority="1" type="highway.path" numLanes="1" speed="5.56" shape="7963.58,6064.04 7982.81,6104.62 7996.55,6131.30 8013.10,6165.02 8043.32,6201.31 8083.53,6253.99 8112.48,6308.41 8123.81,6347.45 8121.07,6363.07 8116.62,6371.63 8112.03,6385.67" width="2.00" allow="pedestrian bicycle"/>
    <edge id="-1067456672" from="2988535787" to="2988535783" priority="1" type="highway.path" numLanes="1" speed="5.56" shape="8146.68,6481.80 8127.98,6441.58 8119.27,6413.63 8115.46,6398.74 8112.03,6385.67" width="2.00" allow="pedestrian bicycle"/>
    <edge id="-1067475885#0" from="454642427" to="5447668638" priority="4" type="highway.unclassified" numLanes="1" speed="8.33" disallow="tram rail_urban rail rail_electric rail_fast ship"/>
    <edge id="-1067475885#1" from="454642431" to="454642427" priority="4" type="highway.unclassified" numLanes="1" speed="8.33" shape="6719.75,6686.91 6727.49,6693.81 6739.90,6704.89 6745.69,6709.99 6807.12,6762.35 6840.97,6791.78 6872.13,6816.33 6887.63,6828.54" disallow="tram rail_urban rail rail_electric rail_fast ship"/>
    <edge id="-1067477308#1" from="10087663157" to="cluster_2988535797_304000162" priority="10" type="highway.tertiary" numLanes="1" speed="22.22" shape="8376.37,6829.49 8363.13,6817.79 8350.04,6807.76 8335.89,6798.81 8282.35,6772.85 8268.23,6760.34" disallow="tram rail_urban rail rail_electric rail_fast ship"/>
    <edge id="-1067477308#2" from="974939114" to="10087663157" priority="10" type="highway.tertiary" numLanes="1" speed="22.22" disallow="tram rail_urban rail rail_electric rail_fast ship"/>
    <edge id="-1067477308#3" from="cluster_974939115_974939118" to="974939114" priority="10" type="highway.tertiary" numLanes="1" speed="22.22" shape="8422.85,6871.77 8416.11,6864.77 8399.31,6849.77" disallow="tram rail_urban rail rail_electric rail_fast ship"/>
    <edge id="-1067477308#5" from="304000370" to="cluster_974939115_974939118" priority="10" type="highway.tertiary" numLanes="1" speed="22.22" shape="8449.53,6892.78 8444.31,6888.57 8431.50,6878.25" disallow="tram rail_urban rail rail_electric rail_fast ship"/>
    <edge id="-1067477309" from="cluster_2988535797_304000162" to="306263511" priority="10" type="highway.tertiary" numLanes="1" speed="22.22" shape="8249.91,6758.61 8246.87,6757.25 8240.84,6754.56 8188.61,6738.63 8173.29,6730.69 8161.99,6721.73 8152.13,6713.91" disallow="tram rail_urban rail rail_electric rail_fast ship"/>
    <edge id="-1067502634" from="2121191902" to="2121134038" priority="4" type="highway.unclassified" numLanes="1" speed="13.89" shape="3463.64,6957.16 3453.49,6958.95 3451.27,6959.21" disallow="tram rail_urban rail rail_electric rail_fast ship"/>
    <edge id="-1071371039" from="2988501548" to="356261813" priority="4" type="highway.unclassified" numLanes="1" speed="13.89" shape="5377.02,5553.04 5364.24,5529.29 5358.00,5524.51 5350.51,5525.92 5350.26,5543.11 5398.94,5627.59 5418.29,5658.22 5416.72,5671.42" disallow="tram rail_urban rail rail_electric rail_fast ship"/>
    <edge id="-1071371042" from="cluster_454635775_534652248" to="454635658" priority="3" type="highway.residential" numLanes="1" speed="13.89" shape="6085.50,6369.10 6103.94,6363.68 6130.86,6355.52 6148.60,6350.56" disallow="tram rail_urban rail rail_electric rail_fast ship"/>
    <edge id="-1071371044#0" from="610927033" to="454642431" priority="10" type="highway.tertiary" numLanes="1" speed="22.22" shape="6725.76,6655.69 6723.93,6665.22 6719.75,6686.91" disallow="tram rail_urban rail rail_electric rail_fast ship"/>
    <edge id="-1075179891" from="9861039233" to="9861039220" priority="1" type="highway.track" numLanes="1" speed="5.56" shape="6355.68,7074.13 6302.34,7041.84 6241.49,7008.21 6173.20,6969.17 6140.81,6952.04 6117.17,6937.04 6103.65,6928.06 6094.07,6920.80 6077.82,6907.17 6054.45,6886.25 6041.59,6876.04 6038.98,6872.27 6038.26,6868.27 6037.36,6862.20" allow="pedestrian motorcycle moped bicycle"/>
    <edge id="-1076702959" from="9873330789" to="9873330785" priority="1" type="highway.path" numLanes="1" speed="5.56" shape="7627.78,7523.57 7626.30,7520.50 7625.65,7515.89 7626.00,7510.19 7626.69,7503.24" width="2.00" allow="pedestrian bicycle"/>
    <edge id="-1086575018" from="9956110286" to="9956110282" priority="1" type="highway.service" numLanes="1" speed="5.56" shape="8907.63,8162.42 8931.95,8147.45 8937.58,8142.54 8963.00,8129.28 8995.09,8113.68" allow="pedestrian delivery bicycle"/>
    <edge id="-1086705637#0" from="9957104432" to="9957104431" priority="1" type="highway.service" numLanes="1" speed="5.56" allow="pedestrian delivery bicycle"/>
    <edge id="-1086705637#1" from="9957104437" to="9957104432" priority="1" type="highway.service" numLanes="1" speed="5.56" shape="8625.63,8080.71 8622.26,8088.71 8622.34,8095.38 8627.02,8109.41 8634.67,8118.90 8655.54,8133.19" allow="pedestrian delivery bicycle"/>
    <edge id="-1086705638" from="9957104440" to="9957104432" priority="1" type="highway.service" numLanes="1" speed="5.56" shape="8667.94,8083.12 8677.41,8117.55 8674.73,8122.35 8655.54,8133.19" allow="pedestrian delivery bicycle"/>
    <edge id="-1086707878" from="9957120060" to="9957120059" priority="1" type="highway.service" numLanes="1" speed="5.56" allow="pedestrian delivery bicycle"/>
    <edge id="-1086707879" from="9957120063" to="9957120061" priority="1" type="highway.service" numLanes="1" speed="5.56" shape="7607.96,9263.33 7614.64,9313.94 7616.05,9323.39" allow="pedestrian delivery bicycle"/>
    <edge id="-1086707880" from="9957120072" to="9957120064" priority="1" type="highway.service" numLanes="1" speed="5.56" shape="7534.34,9336.44 7535.76,9328.80 7536.73,9323.57 7532.34,9264.55 7549.27,9241.36 7579.88,9235.71 7587.11,9240.92 7596.97,9311.31 7595.60,9320.66 7595.95,9326.60" allow="pedestrian delivery bicycle"/>
    <edge id="-1086707881#0" from="9957120075" to="9957120074" priority="1" type="highway.service" numLanes="1" speed="5.56" allow="pedestrian delivery bicycle"/>
    <edge id="-1086707881#1" from="9957120076" to="9957120075" priority="1" type="highway.service" numLanes="1" speed="5.56" allow="pedestrian delivery bicycle"/>
    <edge id="-1086707882" from="9957120077" to="9957120075" priority="1" type="highway.service" numLanes="1" speed="5.56" allow="pedestrian delivery bicycle"/>
    <edge id="-1086707883#0" from="9957120080" to="9957120078" priority="1" type="highway.service" numLanes="1" speed="5.56" shape="7658.04,9331.29 7657.17,9325.77 7655.59,9317.07" allow="pedestrian delivery bicycle"/>
    <edge id="-1086707883#1" from="9957120082" to="9957120080" priority="1" type="highway.service" numLanes="1" speed="5.56" shape="7641.66,9336.90 7655.53,9334.90 7658.04,9331.29" allow="pedestrian delivery bicycle"/>
    <edge id="-1086707884" from="9957120086" to="9957120080" priority="1" type="highway.service" numLanes="1" speed="5.56" shape="7655.08,9380.16 7666.11,9378.67 7668.67,9374.63 7662.95,9339.12 7658.04,9331.29" allow="pedestrian delivery bicycle"/>
    <edge id="-1086720714" from="10103038047" to="9957228781" priority="1" type="highway.service" numLanes="1" speed="5.56" shape="8122.72,7136.55 8146.37,7119.86 8167.98,7107.59 8193.82,7091.01 8201.61,7085.59" allow="pedestrian delivery bicycle"/>
    <edge id="-1086720715#0" from="9957228786" to="9957228785" priority="1" type="highway.service" numLanes="1" speed="5.56" allow="pedestrian delivery bicycle"/>
    <edge id="-1086720715#1" from="9957228787" to="9957228786" priority="1" type="highway.service" numLanes="1" speed="5.56" allow="pedestrian delivery bicycle"/>
    <edge id="-1086720716" from="9957228795" to="9957228786" priority="1" type="highway.service" numLanes="1" speed="5.56" shape="8399.24,7450.97 8387.62,7458.45 8384.01,7458.90 8380.94,7457.82 8380.06,7454.36 8394.32,7420.76 8431.35,7408.14 8436.93,7408.77 8439.63,7414.02" allow="pedestrian delivery bicycle"/>
    <edge id="-1086720717" from="9957228800" to="9957228796" priority="1" type="highway.service" numLanes="1" speed="5.56" shape="8259.83,7242.41 8267.23,7257.65 8270.06,7258.25 8273.44,7256.79 8287.72,7241.81" allow="pedestrian delivery bicycle"/>
    <edge id="-1086720719" from="306263954" to="9957228804" priority="1" type="highway.service" numLanes="1" speed="5.56" shape="8268.05,7341.89 8269.85,7341.56 8293.96,7329.99 8298.74,7331.32 8305.45,7343.94 8304.47,7347.02 8280.92,7361.19 8272.20,7366.99" allow="pedestrian delivery bicycle"/>
    <edge id="-1086720721" from="9957228812" to="9957228811" priority="1" type="highway.service" numLanes="1" speed="5.56" allow="pedestrian delivery bicycle"/>
    <edge id="-1086720723" from="9957230528" to="9957230527" priority="1" type="highway.service" numLanes="1" speed="5.56" allow="pedestrian delivery bicycle"/>
    <edge id="-1086720724#0" from="9957230537" to="9957230529" priority="1" type="highway.service" numLanes="1" speed="5.56" shape="8040.97,7434.03 8039.79,7432.15 8030.50,7415.73 8015.59,7389.78 8002.64,7367.70" allow="pedestrian delivery bicycle"/>
    <edge id="-1086720724#1" from="9957230535" to="9957230537" priority="1" type="highway.service" numLanes="1" speed="5.56" allow="pedestrian delivery bicycle"/>
    <edge id="-1086720724#2" from="9957230533" to="9957230535" priority="1" type="highway.service" numLanes="1" speed="5.56" allow="pedestrian delivery bicycle"/>
    <edge id="-1086720725" from="9957230535" to="9957230534" priority="1" type="highway.service" numLanes="1" speed="5.56" allow="pedestrian delivery bicycle"/>
    <edge id="-1086720726" from="9957230537" to="9957230536" priority="1" type="highway.service" numLanes="1" speed="5.56" allow="pedestrian delivery bicycle"/>
    <edge id="-1086720727" from="9957230539" to="9957230538" priority="1" type="highway.service" numLanes="1" speed="5.56" allow="pedestrian delivery bicycle"/>
    <edge id="-1086720728" from="9957230541" to="9957230540" priority="1" type="highway.service" numLanes="1" speed="5.56" allow="pedestrian delivery bicycle"/>
    <edge id="-1086720729" from="9957230546" to="9957230542" priority="1" type="highway.service" numLanes="1" speed="5.56" shape="7943.71,7311.35 7923.31,7291.98 7920.86,7291.53 7887.97,7325.61 7884.09,7329.32" allow="pedestrian delivery bicycle"/>
    <edge id="-1087480153#0" from="9963771405" to="8291483736" priority="1" type="highway.path" numLanes="1" speed="5.56" shape="6373.08,6000.01 6373.99,6017.84 6367.26,6021.34" width="2.00" allow="pedestrian bicycle"/>
    <edge id="-1087480153#1" from="6225369237" to="9963771405" priority="1" type="highway.path" numLanes="1" speed="5.56" shape="6384.82,6001.13 6382.81,5984.76 6380.87,5979.52 6377.46,5977.66 6374.34,5978.65 6372.21,5982.84 6373.08,6000.01" width="2.00" allow="pedestrian bicycle"/>
    <edge id="-1087480153#2" from="8291483732" to="6225369237" priority="1" type="highway.path" numLanes="1" speed="5.56" width="2.00" allow="pedestrian bicycle"/>
    <edge id="-1097203750" from="316152191" to="2790895469" priority="3" type="highway.residential" numLanes="1" speed="8.33" disallow="tram rail_urban rail rail_electric rail_fast ship"/>
    <edge id="-1097203751" from="2790895469" to="cluster_316151802_5442501597" priority="1" type="highway.path" numLanes="1" speed="5.56" shape="5912.77,6895.45 5940.50,6880.36" width="2.00" allow="pedestrian bicycle"/>
    <edge id="-1097203756" from="385070667" to="971745560" priority="11" type="highway.secondary" numLanes="1" speed="27.78" shape="5942.62,6640.59 5948.90,6645.57 5954.47,6650.67" disallow="tram rail_urban rail rail_electric rail_fast ship">
        <param key="ref" value="D 21"/>
    </edge>
    <edge id="-1097203757" from="2988501628" to="2988503637" priority="1" type="highway.path" numLanes="1" speed="5.56" shape="6221.80,6028.58 6233.49,6020.76 6245.75,6007.66 6268.67,5998.70 6283.57,5991.02 6306.64,5978.10 6325.00,5968.59 6333.02,5970.28" width="2.00" allow="pedestrian bicycle"/>
    <edge id="-1097203758" from="6225369244" to="312947487" priority="4" type="highway.unclassified" numLanes="1" speed="19.44" shape="6404.05,5925.51 6339.81,5874.17 6314.02,5852.62 6294.91,5835.98 6275.93,5815.57 6228.56,5753.84" disallow="tram rail_urban rail rail_electric rail_fast ship"/>
    <edge id="-1098303713" from="cluster_2284486298_454641650" to="2611512028" priority="3" type="highway.residential" numLanes="1" speed="13.89" shape="7006.85,6981.13 7005.00,6987.03" disallow="tram rail_urban rail rail_electric rail_fast ship"/>
    <edge id="-1098303715" from="2210360719" to="2210360732" priority="1" type="highway.service" numLanes="1" speed="5.56" shape="8024.44,7249.34 8029.16,7260.87 8033.66,7272.41 8039.46,7287.36" allow="pedestrian delivery bicycle"/>
    <edge id="-1098303716" from="455602648" to="971096960" priority="10" type="highway.tertiary" numLanes="1" speed="22.22" shape="8061.55,7331.79 8081.80,7315.89 8105.57,7296.73 8107.08,7295.50" disallow="tram rail_urban rail rail_electric rail_fast ship"/>
    <edge id="-1098303720" from="379589626" to="976140126" priority="11" type="highway.secondary" numLanes="1" speed="13.89" shape="9525.69,9047.72 9530.65,9054.04 9546.99,9074.83" disallow="tram rail_urban rail rail_electric rail_fast ship">
        <param key="ref" value="D 17"/>
    </edge>
    <edge id="-1101781120" from="248544447" to="392475963" priority="12" type="highway.primary" numLanes="2" speed="13.89" disallow="tram rail_urban rail rail_electric rail_fast ship">
        <param key="ref" value="D 191"/>
    </edge>
    <edge id="-1101781121#0" from="cluster_7524515723_7524515724" to="248544433" priority="12" type="highway.primary" numLanes="2" speed="13.89" shape="6192.67,8229.24 6302.02,8200.62" disallow="tram rail_urban rail rail_electric rail_fast ship">
        <param key="ref" value="D 191"/>
    </edge>
    <edge id="-1101781121#2" from="392475963" to="cluster_7524515723_7524515724" priority="12" type="highway.primary" numLanes="2" speed="13.89" shape="5917.19,8301.38 6189.69,8230.02" disallow="tram rail_urban rail rail_electric rail_fast ship">
        <param key="ref" value="D 191"/>
    </edge>
    <edge id="-1101781123#1" from="248544433" to="976779379" priority="12" type="highway.primary" numLanes="2" speed="13.89" shape="6302.02,8200.62 6348.75,8191.41 6369.81,8189.52 6375.64,8189.42 6385.56,8189.27 6402.19,8191.21" disallow="tram rail_urban rail rail_electric rail_fast ship">
        <param key="ref" value="D 191"/>
    </edge>
    <edge id="-1101781124#1" from="976779379" to="976779352" priority="12" type="highway.primary" numLanes="2" speed="13.89" shape="6402.19,8191.21 6415.21,8193.01 6447.86,8200.05 6454.95,8201.35" disallow="tram rail_urban rail rail_electric rail_fast ship">
        <param key="ref" value="D 191"/>
    </edge>
    <edge id="-1101783586" from="976509853" to="976210961" priority="12" type="highway.primary" numLanes="2" speed="13.89" disallow="tram rail_urban rail rail_electric rail_fast ship">
        <param key="ref" value="D 191"/>
    </edge>
    <edge id="-1101783587" from="610924238" to="976510031" priority="10" type="highway.tertiary" numLanes="1" speed="22.22" shape="6849.53,8172.84 6811.43,8215.86 6803.50,8224.12" disallow="tram rail_urban rail rail_electric rail_fast ship"/>
    <edge id="-1101783589#0" from="10082385484" to="10082385488" priority="3" type="highway.residential" numLanes="1" speed="13.89" shape="7478.49,8082.67 7477.90,8089.77 7477.71,8110.54 7467.66,8125.28" disallow="tram rail_urban rail rail_electric rail_fast ship"/>
    <edge id="-1101783589#1" from="10082385485" to="10082385484" priority="3" type="highway.residential" numLanes="1" speed="13.89" shape="7440.50,8109.68 7444.08,8088.49 7463.41,8085.16 7472.07,8083.03 7478.49,8082.67" disallow="tram rail_urban rail rail_electric rail_fast ship"/>
    <edge id="-1101783590#0" from="974220957" to="974220952" priority="3" type="highway.residential" numLanes="1" speed="13.89" shape="7524.28,8047.11 7534.21,8037.14 7538.70,8030.02 7538.35,8019.61" disallow="tram rail_urban rail rail_electric rail_fast ship"/>
    <edge id="-1101783590#1" from="10087663139" to="974220957" priority="3" type="highway.residential" numLanes="1" speed="13.89" shape="7556.42,8079.44 7546.27,8083.30 7524.28,8047.11" disallow="tram rail_urban rail rail_electric rail_fast ship"/>
    <edge id="-1101783591" from="2179091728" to="cluster_2179091751_2179091752" priority="1" type="highway.service" numLanes="1" speed="5.56" shape="7933.46,7693.03 7930.98,7693.94 7922.69,7697.64" allow="pedestrian delivery bicycle"/>
    <edge id="-1101783592" from="cluster_2179091679_2179091681" to="2179091696" priority="1" type="highway.service" numLanes="1" speed="5.56" shape="8053.48,7663.70 8049.80,7671.14 8046.67,7676.59" allow="pedestrian delivery bicycle"/>
    <edge id="-1101783593" from="2178908567" to="2179091696" priority="4" type="highway.unclassified" numLanes="1" speed="13.89" disallow="tram rail_urban rail rail_electric rail_fast ship"/>
    <edge id="-1101783594" from="12044058616" to="971096937" priority="12" type="highway.primary" numLanes="2" speed="13.89" disallow="tram rail_urban rail rail_electric rail_fast ship">
        <param key="ref" value="D 191"/>
    </edge>
    <edge id="-1101783596" from="10082385490" to="10082385491" priority="1" type="highway.path" numLanes="1" speed="5.56" width="2.00" allow="pedestrian bicycle"/>