<?xml version="1.0" encoding="UTF-8"?>

<!-- generated on 2025-04-08 22:13:59 by Eclipse SUMO netconvert Version 1.19.0
<configuration xmlns:xsi="http://www.w3.org/2001/XMLSchema-instance" xsi:noNamespaceSchemaLocation="http://sumo.dlr.de/xsd/netconvertConfiguration.xsd">

    <input>
        <sumo-net-file value="etampes/etampes.net.xml"/>
    </input>

    <output>
        <plain-output-prefix value="etampes/etampes"/>
    </output>

    <processing>
        <geometry.min-radius.fix.railways value="false"/>
        <geometry.max-grade.fix value="false"/>
        <offset.disable-normalization value="true"/>
        <lefthand value="0"/>
    </processing>

    <tls_building>
        <tls.ignore-internal-junction-jam value="1"/>
    </tls_building>

    <junctions>
        <no-turnarounds value="true"/>
        <junctions.corner-detail value="5"/>
        <junctions.limit-turn-speed value="5.50"/>
        <rectangular-lane-cut value="0"/>
    </junctions>

    <pedestrian>
        <walkingareas value="0"/>
    </pedestrian>

</configuration>
-->

<nodes version="1.16" xmlns:xsi="http://www.w3.org/2001/XMLSchema-instance" xsi:noNamespaceSchemaLocation="http://sumo.dlr.de/xsd/nodes_file.xsd">
    <location netOffset="-429878.26,-5357435.97" convBoundary="0.00,0.00,14628.24,12341.61" origBoundary="-1.977429,47.352657,2.316477,48.477215" projParameter="+proj=utm +zone=31 +ellps=WGS84 +datum=WGS84 +units=m +no_defs"/>

    <node id="10082369540" x="6802.51" y="8474.91" type="priority"/>
    <node id="10082385484" x="7962.15" y="8082.67" type="priority"/>
    <node id="10082385485" x="7924.16" y="8109.68" type="priority"/>
    <node id="10082385488" x="7951.32" y="8125.28" type="priority"/>
    <node id="10082385490" x="8738.32" y="7439.19" type="priority"/>
    <node id="10082385491" x="8738.94" y="7445.91" type="right_before_left"/>
    <node id="10082385496" x="8674.69" y="7456.07" type="right_before_left"/>
    <node id="10082385501" x="9195.77" y="7300.54" type="priority"/>
    <node id="10082385505" x="9230.09" y="7303.69" type="priority"/>
    <node id="10083108658" x="7624.79" y="9251.18" type="priority"/>
    <node id="10083141334" x="6974.63" y="7678.35" type="priority" fringe="inner">
        <param key="buffer_stop" value="true"/>
    </node>
    <node id="10087125032" x="9576.28" y="8732.05" type="priority"/>
    <node id="10087125038" x="9533.61" y="8748.82" type="right_before_left"/>
    <node id="10087125046" x="10535.07" y="9445.31" type="right_before_left"/>
    <node id="10087125047" x="10532.10" y="9482.43" type="right_before_left"/>
    <node id="10087125056" x="10625.92" y="9643.01" type="priority"/>
    <node id="10087125061" x="10586.27" y="9606.34" type="right_before_left"/>
    <node id="10087125067" x="10560.49" y="9600.07" type="right_before_left"/>
    <node id="10087125078" x="10522.78" y="9513.57" type="right_before_left"/>
    <node id="10087125083" x="10493.10" y="9555.22" type="priority"/>
    <node id="10087125085" x="10485.20" y="9576.93" type="right_before_left"/>
    <node id="10087125086" x="10495.19" y="9659.22" type="priority"/>
    <node id="10087125091" x="10496.04" y="9580.26" type="right_before_left"/>
    <node id="10087127975" x="11094.66" y="10675.61" type="priority"/>
    <node id="10087143948" x="9741.75" y="8901.26" type="priority"/>
    <node id="10087143957" x="9629.29" y="8926.99" type="priority"/>
    <node id="10087143959" x="9786.10" y="9211.22" type="dead_end"/>
    <node id="10087143961" x="9709.93" y="9173.38" type="dead_end"/>
    <node id="10087143964" x="9613.41" y="9098.99" type="dead_end"/>
    <node id="10087143966" x="9697.97" y="9046.67" type="dead_end"/>
    <node id="10087143973" x="9733.23" y="9193.79" type="dead_end"/>
    <node id="10087143975" x="9721.74" y="9173.49" type="dead_end"/>
    <node id="10087612775" x="9502.04" y="8652.48" type="priority"/>
    <node id="10087612778" x="9541.85" y="8591.10" type="priority"/>
    <node id="10087612781" x="9534.73" y="8550.23" type="priority"/>
    <node id="10087626289" x="9572.80" y="8766.49" type="priority"/>
    <node id="10087626292" x="9612.39" y="8791.93" type="priority"/>
    <node id="10087626295" x="9627.76" y="8842.89" type="priority"/>
    <node id="10087626298" x="9604.55" y="8881.01" type="priority"/>
    <node id="10087626931" x="9649.26" y="8674.00" type="priority"/>
    <node id="10087626932" x="9711.99" y="8633.65" type="priority"/>
    <node id="10087626933" x="10258.20" y="8971.33" type="priority"/>
    <node id="10087663118" x="2948.92" y="7088.44" type="priority"/>
    <node id="10087663121" x="2970.61" y="7040.64" type="priority"/>
    <node id="10087663122" x="6808.68" y="10025.44" type="priority"/>
    <node id="10087663124" x="6716.17" y="9994.22" type="priority"/>
    <node id="10087663125" x="7912.93" y="9110.54" type="priority"/>
    <node id="10087663128" x="8564.46" y="8592.74" type="priority"/>
    <node id="10087663130" x="8519.21" y="8687.27" type="right_before_left"/>
    <node id="10087663131" x="8232.99" y="8067.03" type="priority"/>
    <node id="10087663137" x="8310.03" y="8073.72" type="priority"/>
    <node id="10087663138" x="8370.04" y="8051.14" type="priority"/>
    <node id="10087663139" x="8040.08" y="8079.44" type="priority"/>
    <node id="10087663140" x="6983.79" y="7731.73" type="priority"/>
    <node id="10087663145" x="7464.98" y="7528.12" type="priority"/>
    <node id="10087663148" x="5992.69" y="6876.28" type="priority"/>
    <node id="10087663149" x="5989.53" y="6921.14" type="priority"/>
    <node id="10087663150" x="6597.54" y="6505.12" type="priority"/>
    <node id="10087663151" x="6672.03" y="6634.97" type="priority"/>
    <node id="10087663152" x="7186.80" y="6939.26" type="priority"/>
    <node id="10087663153" x="7125.45" y="6911.88" type="priority"/>
    <node id="10087663154" x="8758.10" y="6910.15" type="priority"/>
    <node id="10087663157" x="8860.03" y="6829.49" type="priority"/>
    <node id="10094729414" x="7402.96" y="8158.21" type="priority"/>
    <node id="10094755119" x="7031.04" y="6256.62" type="priority"/>
    <node id="10094755124" x="7012.45" y="6223.78" type="priority"/>
    <node id="10094755143" x="6978.03" y="5885.07" type="priority"/>
    <node id="10094755144" x="6995.23" y="5890.68" type="priority"/>
    <node id="10094755145" x="6961.56" y="5932.94" type="priority"/>
    <node id="10094755147" x="6983.15" y="5929.25" type="priority"/>
    <node id="10094756485" x="9507.05" y="7346.74" type="priority"/>
    <node id="10095114766" x="8944.60" y="9101.33" type="priority"/>
    <node id="10095114770" x="8903.03" y="8999.59" type="right_before_left"/>
    <node id="10095114771" x="8935.38" y="8992.19" type="priority"/>
    <node id="10095114774" x="8819.55" y="9023.35" type="right_before_left"/>
    <node id="10098260939" x="7787.41" y="7487.76" type="dead_end"/>
    <node id="10098260940" x="7807.39" y="7502.89" type="dead_end"/>
    <node id="10098260941" x="7809.85" y="7501.47" type="dead_end"/>
    <node id="10100618355" x="7971.52" y="6927.86" type="right_before_left"/>
    <node id="10100618359" x="8065.06" y="7012.95" type="right_before_left"/>
    <node id="10102972476" x="7733.16" y="7809.38" type="priority"/>
    <node id="10102972477" x="7720.60" y="7823.25" type="priority"/>
    <node id="10102992410" x="7332.10" y="7043.97" type="right_before_left"/>
    <node id="10102992413" x="7328.51" y="7055.90" type="priority"/>
    <node id="10102992416" x="7305.15" y="7080.64" type="dead_end"/>
    <node id="10103038047" x="8606.38" y="7136.55" type="priority"/>
    <node id="10103063518" x="7335.64" y="7032.22" type="right_before_left"/>
    <node id="10103064753" x="6115.78" y="6811.38" type="priority"/>
    <node id="10103064754" x="6119.32" y="6754.24" type="priority"/>
    <node id="10103114998" x="8967.42" y="9091.56" type="priority"/>
    <node id="10103115004" x="9043.21" y="9059.13" type="priority"/>
    <node id="10105983510" x="8351.89" y="9472.78" type="priority"/>
    <node id="10105983513" x="8403.37" y="9583.66" type="priority"/>
    <node id="10105983515" x="8417.65" y="9487.50" type="right_before_left"/>
    <node id="10106068824" x="8060.84" y="9502.66" type="priority"/>
    <node id="10106068825" x="8050.32" y="9455.63" type="right_before_left"/>
    <node id="10106068826" x="8199.78" y="9432.02" type="right_before_left"/>
    <node id="10106068828" x="8235.97" y="9483.34" type="right_before_left"/>
    <node id="10106068831" x="8179.10" y="9530.77" type="right_before_left"/>
    <node id="10106068832" x="8189.12" y="9570.70" type="right_before_left"/>
    <node id="10106068835" x="8248.60" y="9581.60" type="right_before_left"/>
    <node id="10106068841" x="8155.03" y="9437.02" type="right_before_left"/>
    <node id="10106068845" x="8031.84" y="9443.73" type="right_before_left"/>
    <node id="10106068846" x="8023.28" y="9441.70" type="priority"/>
    <node id="10106068847" x="8027.56" y="9459.54" type="priority"/>
    <node id="10106068848" x="8035.13" y="9458.55" type="right_before_left"/>
    <node id="10106068850" x="8122.24" y="9440.68" type="right_before_left"/>
    <node id="10106068855" x="8259.19" y="9430.28" type="right_before_left"/>
    <node id="10106068859" x="8546.45" y="9513.63" type="priority"/>
    <node id="10106110515" x="6524.24" y="6454.29" type="priority"/>
    <node id="10106124035" x="7611.82" y="8238.83" type="priority"/>
    <node id="10106124037" x="7584.04" y="8218.89" type="priority"/>
    <node id="10106174066" x="8285.15" y="7616.48" type="priority"/>
    <node id="10106174067" x="8290.01" y="7612.03" type="right_before_left"/>
    <node id="10106220273" x="5710.71" y="6152.63" type="priority"/>
    <node id="10119571562" x="9403.38" y="7009.25" type="dead_end"/>
    <node id="10119571563" x="9259.78" y="7005.44" type="dead_end"/>
    <node id="10119571568" x="9290.43" y="6995.82" type="priority"/>
    <node id="10119571571" x="9229.81" y="7041.18" type="right_before_left"/>
    <node id="10119595640" x="9016.91" y="6716.68" type="right_before_left"/>
    <node id="10119595641" x="9025.83" y="6729.79" type="priority"/>
    <node id="10143787190" x="7823.48" y="7599.72" type="dead_end"/>
    <node id="10143787191" x="7827.09" y="7594.69" type="dead_end"/>
    <node id="10143787192" x="7822.45" y="7600.92" type="dead_end"/>
    <node id="10143787195" x="7782.85" y="7633.64" type="priority"/>
    <node id="10143787200" x="7857.64" y="7584.95" type="dead_end"/>
    <node id="10143787201" x="7858.27" y="7585.33" type="dead_end"/>
    <node id="10143787203" x="7858.50" y="7583.62" type="dead_end"/>
    <node id="10143787216" x="7812.09" y="7656.25" type="priority"/>
    <node id="10144350518" x="7820.28" y="7646.87" type="dead_end"/>
    <node id="10144350525" x="7824.73" y="7641.53" type="dead_end"/>
    <node id="10144350526" x="7828.11" y="7637.53" type="dead_end"/>
    <node id="1017936618" x="7454.10" y="9873.95" type="priority"/>
    <node id="1017936620" x="7432.66" y="9855.43" type="priority"/>
    <node id="1017936623" x="7423.55" y="9873.64" type="right_before_left"/>
    <node id="10266281243" x="3159.15" y="6562.30" type="priority"/>
    <node id="10271390585" x="2565.92" y="7221.76" type="priority"/>
    <node id="10271390588" x="3921.86" y="6834.81" type="priority" fringe="inner">
        <param key="buffer_stop" value="true"/>
    </node>
    <node id="10271448631" x="3708.01" y="6975.42" type="priority"/>
    <node id="10271448636" x="3692.72" y="6906.09" type="priority"/>
    <node id="10271448637" x="3615.53" y="6991.74" type="priority"/>
    <node id="10271448673" x="3446.51" y="6950.54" type="priority"/>
    <node id="10271448676" x="3481.68" y="6918.15" type="right_before_left"/>
    <node id="10271448677" x="3554.62" y="7073.58" type="priority"/>
    <node id="10271448685" x="3470.67" y="6907.37" type="priority"/>
    <node id="10271448686" x="3456.51" y="6902.00" type="priority"/>
    <node id="10271448688" x="3417.67" y="6896.35" type="priority"/>
    <node id="10271448689" x="3414.90" y="6884.09" type="right_before_left"/>
    <node id="10271448692" x="4736.47" y="7034.08" type="right_before_left"/>
    <node id="10271448698" x="4099.24" y="7016.45" type="right_before_left"/>
    <node id="10271448710" x="4270.53" y="6911.98" type="priority"/>
    <node id="10271448716" x="4908.95" y="7043.78" type="priority"/>
    <node id="10271448717" x="4870.56" y="7051.16" type="right_before_left"/>
    <node id="10271622161" x="10808.12" y="6375.89" type="right_before_left"/>
    <node id="10271622180" x="11249.63" y="5713.73" type="right_before_left"/>
    <node id="105491538" x="6205.12" y="8351.29" type="priority"/>
    <node id="1066207550" x="8930.68" y="3242.38" type="priority"/>
    <node id="1066207554" x="8895.17" y="3108.91" type="priority"/>
    <node id="1066207599" x="8900.48" y="3172.04" type="right_before_left"/>
    <node id="10775222455" x="8784.63" y="7394.10" type="priority"/>
    <node id="10775222459" x="8822.93" y="7393.99" type="priority"/>
    <node id="10775609176" x="9192.00" y="9895.06" type="priority"/>
    <node id="10775609177" x="9060.40" y="9550.31" type="priority"/>
    <node id="10798844165" x="3037.02" y="7006.33" type="priority"/>
    <node id="10799992778" x="8414.71" y="7668.63" type="priority"/>
    <node id="10826300391" x="6336.51" y="8586.97" type="priority"/>
    <node id="10903666493" x="7905.00" y="7099.84" type="priority"/>
    <node id="10903666495" x="8239.06" y="7227.03" type="priority"/>
    <node id="10903666496" x="7888.20" y="7096.92" type="dead_end"/>
    <node id="10903712463" x="7928.88" y="6906.39" type="priority"/>
    <node id="10903712466" x="7911.93" y="6857.73" type="priority"/>
    <node id="10903712470" x="7977.62" y="6880.57" type="priority"/>
    <node id="10903712476" x="7882.78" y="6927.05" type="right_before_left"/>
    <node id="10903712480" x="7954.11" y="6920.54" type="right_before_left"/>
    <node id="10903712490" x="7924.36" y="6888.36" type="priority"/>
    <node id="10903712492" x="7919.19" y="6903.59" type="priority"/>
    <node id="10903729286" x="7818.59" y="6996.24" type="dead_end"/>
    <node id="10903729287" x="7840.14" y="6988.62" type="dead_end"/>
    <node id="10903729289" x="7838.99" y="6991.18" type="dead_end"/>
    <node id="10903729297" x="7835.35" y="7000.17" type="dead_end"/>
    <node id="10903729298" x="7826.27" y="6985.50" type="dead_end"/>
    <node id="10903733706" x="7911.77" y="6994.38" type="priority"/>
    <node id="10903753510" x="8081.80" y="7124.62" type="priority"/>
    <node id="10904458002" x="8406.50" y="7387.39" type="right_before_left"/>
    <node id="10904460110" x="8406.97" y="7407.37" type="priority"/>
    <node id="10904613331" x="7862.53" y="6971.17" type="dead_end"/>
    <node id="10908496627" x="7231.62" y="8070.75" type="priority"/>
    <node id="10908496630" x="7215.07" y="8089.87" type="priority"/>
    <node id="10908496631" x="7309.00" y="8080.67" type="priority"/>
    <node id="10908496634" x="7304.30" y="8147.46" type="priority"/>
    <node id="1091304737" x="10065.50" y="11886.02" type="dead_end"/>
    <node id="1091304805" x="10075.84" y="11878.38" type="dead_end"/>
    <node id="1091304903" x="10069.39" y="11883.53" type="dead_end"/>
    <node id="1091305207" x="10072.09" y="11880.85" type="dead_end"/>
    <node id="10956341709" x="6939.01" y="8946.24" type="right_before_left"/>
    <node id="10956341710" x="6973.05" y="8883.31" type="right_before_left"/>
    <node id="10956341716" x="7018.40" y="8299.11" type="priority"/>
    <node id="10956341730" x="7044.96" y="8332.15" type="right_before_left"/>
    <node id="10956341731" x="6924.86" y="8331.79" type="right_before_left"/>
    <node id="10956341736" x="7055.64" y="8347.27" type="right_before_left"/>
    <node id="10956341737" x="7055.33" y="8359.77" type="priority"/>
    <node id="10956341738" x="6926.57" y="8265.13" type="priority"/>
    <node id="10956341740" x="6926.14" y="8363.57" type="priority"/>
    <node id="10961285751" x="10181.88" y="9293.58" type="right_before_left"/>
    <node id="11071241532" x="6947.48" y="6655.33" type="dead_end"/>
    <node id="11071241537" x="6929.48" y="6660.25" type="dead_end"/>
    <node id="11071241539" x="6911.60" y="6715.96" type="dead_end"/>
    <node id="11071241543" x="6924.32" y="6720.25" type="dead_end"/>
    <node id="11071241544" x="7011.94" y="6660.90" type="priority"/>
    <node id="11071241551" x="6941.52" y="6666.03" type="dead_end"/>
    <node id="11071241559" x="6874.34" y="6809.32" type="dead_end"/>
    <node id="11071502956" x="8243.61" y="8549.16" type="priority"/>
    <node id="11071502961" x="8295.98" y="8522.08" type="priority"/>
    <node id="11071502966" x="8308.26" y="8592.23" type="right_before_left"/>
    <node id="11071502970" x="8396.56" y="8613.06" type="priority"/>
    <node id="11146962071" x="7994.01" y="7858.17" type="dead_end"/>
    <node id="11146962082" x="7865.01" y="7828.06" type="dead_end"/>
    <node id="11146962084" x="7873.41" y="7758.79" type="dead_end"/>
    <node id="11146962086" x="7868.85" y="7770.52" type="dead_end"/>
    <node id="1120605553-AddedOffRampNode" x="6097.13" y="6046.94" type="priority"/>
    <node id="11217615088" x="3023.44" y="3702.45" type="priority"/>
    <node id="11217821561" x="6965.24" y="6528.48" type="priority"/>
    <node id="11217821564" x="7059.41" y="6528.64" type="priority"/>
    <node id="11217821749" x="7044.28" y="7096.86" type="priority"/>
    <node id="11217821750" x="7017.31" y="7093.11" type="right_before_left"/>
    <node id="11217821751" x="7059.11" y="7117.90" type="priority" fringe="inner">
        <param key="buffer_stop" value="true"/>
    </node>
    <node id="11217821752" x="7037.81" y="7106.77" type="right_before_left"/>
    <node id="11217821755" x="7026.46" y="7133.60" type="right_before_left"/>
    <node id="11217821756" x="7006.07" y="7125.07" type="right_before_left"/>
    <node id="11217821757" x="7030.55" y="7135.72" type="right_before_left"/>
    <node id="11217821758" x="7049.36" y="7141.70" type="priority" fringe="inner">
        <param key="buffer_stop" value="true"/>
    </node>
    <node id="11217821763" x="7029.88" y="7129.56" type="right_before_left"/>
    <node id="11217821768" x="7026.58" y="7141.07" type="right_before_left"/>
    <node id="11217821769" x="7015.77" y="7172.65" type="priority" fringe="inner">
        <param key="buffer_stop" value="true"/>
    </node>
    <node id="11217822856" x="8266.04" y="8023.69" type="right_before_left"/>
    <node id="11217822857" x="8146.27" y="8001.88" type="right_before_left"/>
    <node id="11224884033" x="9569.85" y="8407.92" type="priority"/>
    <node id="11224884034" x="9548.16" y="8418.09" type="priority"/>
    <node id="11262543028" x="7328.50" y="6717.29" type="right_before_left"/>
    <node id="11262543030" x="7393.86" y="6740.00" type="right_before_left"/>
    <node id="11262543035" x="5316.50" y="2796.55" type="priority"/>
    <node id="11262543036" x="5480.08" y="2727.27" type="priority"/>
    <node id="11262543969" x="5955.01" y="5646.34" type="right_before_left"/>
    <node id="11282975844" x="6119.15" y="10223.93" type="priority"/>
    <node id="11283056871" x="6667.69" y="9752.01" type="priority"/>
    <node id="11381174881" x="7922.26" y="6889.15" type="priority"/>
    <node id="11403192395" x="7703.73" y="6943.29" type="priority"/>
    <node id="11403192397" x="7687.47" y="6981.20" type="right_before_left"/>
    <node id="11403192400" x="7702.54" y="6987.52" type="right_before_left"/>
    <node id="11403192404" x="7717.92" y="6949.28" type="priority"/>
    <node id="11421350475" x="1940.87" y="9349.49" type="priority"/>
    <node id="11421532898" x="7104.79" y="10023.67" type="priority"/>
    <node id="11421532909" x="7265.81" y="10092.13" type="priority"/>
    <node id="11421532910" x="7298.22" y="9886.09" type="priority"/>
    <node id="11421532911" x="7283.06" y="9982.44" type="priority"/>
    <node id="11421532914" x="7346.04" y="9967.70" type="priority"/>
    <node id="11421540028" x="6533.25" y="8127.25" type="right_before_left"/>
    <node id="11421540029" x="6528.08" y="8148.31" type="right_before_left"/>
    <node id="11421540030" x="6530.22" y="8139.41" type="priority"/>
    <node id="11421540031" x="6526.77" y="8153.44" type="right_before_left"/>
    <node id="11421540042" x="6523.84" y="8166.38" type="right_before_left"/>
    <node id="11421540054" x="6992.20" y="8164.15" type="right_before_left"/>
    <node id="11421540056" x="6959.23" y="8185.23" type="right_before_left"/>
    <node id="11421540057" x="6958.79" y="8165.31" type="right_before_left"/>
    <node id="11421540058" x="6976.14" y="8164.71" type="right_before_left"/>
    <node id="11421540059" x="6976.94" y="8187.98" type="right_before_left"/>
    <node id="11421549673" x="6331.72" y="8250.49" type="right_before_left"/>
    <node id="11447608749" x="9289.07" y="8688.63" type="dead_end"/>
    <node id="11447791735" x="6830.05" y="8605.36" type="priority"/>
    <node id="11447791752" x="7112.18" y="8474.06" type="priority"/>
    <node id="11447871896" x="6753.09" y="8806.23" type="dead_end"/>
    <node id="11447871901" x="6930.41" y="8623.43" type="right_before_left"/>
    <node id="11447871902" x="6893.71" y="8709.85" type="dead_end"/>
    <node id="11447871903" x="6908.47" y="8683.42" type="priority"/>
    <node id="11447871904" x="6810.02" y="8476.17" type="dead_end"/>
    <node id="11447871910" x="6794.51" y="8556.13" type="dead_end"/>
    <node id="11447871914" x="6794.43" y="8480.59" type="dead_end"/>
    <node id="11447871915" x="6749.06" y="8487.96" type="dead_end"/>
    <node id="11447871925" x="6753.19" y="8487.29" type="dead_end"/>
    <node id="11447871930" x="6776.08" y="8483.57" type="dead_end"/>
    <node id="11447871931" x="6819.17" y="8475.70" type="dead_end"/>
    <node id="11447871939" x="6840.45" y="8387.51" type="dead_end"/>
    <node id="11447871940" x="6819.35" y="8390.99" type="dead_end"/>
    <node id="11447871947" x="6783.71" y="8368.43" type="dead_end"/>
    <node id="11447871956" x="7123.71" y="8450.55" type="dead_end"/>
    <node id="11447871961" x="7115.05" y="8470.63" type="dead_end"/>
    <node id="11447871962" x="7114.60" y="8450.81" type="dead_end"/>
    <node id="11447884473" x="7114.02" y="8466.98" type="dead_end"/>
    <node id="11447884481" x="6922.67" y="8628.81" type="dead_end"/>
    <node id="11449961187" x="6376.92" y="8160.93" type="dead_end"/>
    <node id="11449961188" x="6396.80" y="8103.16" type="dead_end"/>
    <node id="11449961189" x="6435.15" y="7963.75" type="dead_end"/>
    <node id="11449961190" x="6329.95" y="8163.19" type="right_before_left"/>
    <node id="11449961194" x="6276.34" y="8129.88" type="priority"/>
    <node id="11449961195" x="6330.97" y="8160.02" type="priority"/>
    <node id="11449961196" x="6315.94" y="7917.86" type="right_before_left"/>
    <node id="11449961199" x="6277.54" y="8020.74" type="priority"/>
    <node id="11449961200" x="6313.02" y="7931.32" type="right_before_left"/>
    <node id="11449961203" x="6254.88" y="7948.25" type="right_before_left"/>
    <node id="11449961206" x="6298.30" y="7927.09" type="right_before_left"/>
    <node id="11449961207" x="6290.36" y="7958.04" type="right_before_left"/>
    <node id="11449961208" x="6253.76" y="7931.43" type="right_before_left"/>
    <node id="11449961209" x="6294.38" y="7942.37" type="right_before_left"/>
    <node id="11449961210" x="6401.96" y="7942.12" type="right_before_left"/>
    <node id="11449961212" x="6383.08" y="7962.80" type="priority"/>
    <node id="11449961213" x="6700.14" y="7998.15" type="priority"/>
    <node id="11519599174" x="7094.36" y="5573.34" type="priority"/>
    <node id="11545842248" x="5948.30" y="6136.59" type="priority"/>
    <node id="11724876149" x="7824.57" y="7670.80" type="dead_end"/>
    <node id="11724876150" x="7869.57" y="7700.42" type="dead_end"/>
    <node id="11724883992" x="7914.11" y="7719.11" type="dead_end"/>
    <node id="11724883996" x="7955.25" y="7716.14" type="dead_end"/>
    <node id="11724884003" x="7998.08" y="7754.05" type="dead_end"/>
    <node id="11724884006" x="7955.98" y="7733.79" type="dead_end"/>
    <node id="11724884007" x="7953.47" y="7730.20" type="dead_end"/>
    <node id="11724884008" x="7949.99" y="7725.94" type="dead_end"/>
    <node id="11730920315" x="6518.10" y="7636.05" type="priority"/>
    <node id="11730920318" x="6578.94" y="7618.26" type="priority"/>
    <node id="11730920319" x="6581.69" y="7601.43" type="priority"/>
    <node id="11730920328" x="6578.20" y="7622.34" type="dead_end"/>
    <node id="1179812926#1-AddedOnRampNode" x="5796.30" y="5528.64" type="priority"/>
    <node id="11813185051" x="6186.68" y="7098.05" type="right_before_left"/>
    <node id="11813185052" x="6188.04" y="7125.59" type="right_before_left"/>
    <node id="11813185055" x="6195.34" y="7147.67" type="right_before_left"/>
    <node id="11813185056" x="6194.54" y="7125.34" type="right_before_left"/>
    <node id="11813185057" x="6193.07" y="7097.67" type="right_before_left"/>
    <node id="11813185058" x="6200.06" y="7097.27" type="right_before_left"/>
    <node id="11813185059" x="6201.13" y="7125.09" type="right_before_left"/>
    <node id="11813185060" x="6202.14" y="7156.95" type="right_before_left"/>
    <node id="11813185061" x="6208.69" y="7157.66" type="right_before_left"/>
    <node id="11813185062" x="6206.36" y="7096.90" type="right_before_left"/>
    <node id="11813185063" x="6207.68" y="7124.83" type="right_before_left"/>
    <node id="11813185064" x="6215.49" y="7157.34" type="right_before_left"/>
    <node id="11813185065" x="6213.02" y="7096.51" type="right_before_left"/>
    <node id="11813185066" x="6214.42" y="7124.58" type="right_before_left"/>
    <node id="11813185067" x="6222.58" y="7156.96" type="right_before_left"/>
    <node id="11813185068" x="6221.26" y="7124.32" type="right_before_left"/>
    <node id="11813218569" x="6219.76" y="7096.13" type="right_before_left"/>
    <node id="11813218570" x="6226.66" y="7095.73" type="right_before_left"/>
    <node id="11813218571" x="6228.21" y="7124.06" type="right_before_left"/>
    <node id="11813218572" x="6229.24" y="7154.41" type="right_before_left"/>
    <node id="11813218574" x="6234.71" y="7123.81" type="right_before_left"/>
    <node id="11813218575" x="6184.78" y="7125.71" type="right_before_left"/>
    <node id="11813218576" x="6242.68" y="7123.50" type="right_before_left"/>
    <node id="11813218578" x="6173.57" y="7104.93" type="priority"/>
    <node id="11813218580" x="6180.04" y="7098.43" type="right_before_left"/>
    <node id="11813218593" x="6180.84" y="7121.52" type="right_before_left"/>
    <node id="11813218595" x="6157.32" y="7078.63" type="right_before_left"/>
    <node id="11813218596" x="6157.69" y="7095.37" type="priority" fringe="inner">
        <param key="buffer_stop" value="true"/>
    </node>
    <node id="11813218597" x="6189.75" y="7074.54" type="right_before_left"/>
    <node id="11813218598" x="6116.17" y="7082.63" type="priority"/>
    <node id="11813218599" x="6154.97" y="7078.93" type="right_before_left"/>
    <node id="11813218600" x="6190.25" y="7092.73" type="priority" fringe="inner">
        <param key="buffer_stop" value="true"/>
    </node>
    <node id="11813218609" x="6156.77" y="7045.12" type="priority"/>
    <node id="11813218610" x="6116.99" y="7076.34" type="priority"/>
    <node id="11813218612" x="6154.51" y="7059.95" type="right_before_left"/>
    <node id="11813218613" x="6156.69" y="7059.72" type="right_before_left"/>
    <node id="11813218614" x="6179.28" y="7056.99" type="right_before_left"/>
    <node id="11813218617" x="6188.65" y="7057.08" type="right_before_left"/>
    <node id="11813218618" x="6191.86" y="7055.47" type="right_before_left"/>
    <node id="11813218626" x="6252.01" y="7004.83" type="priority"/>
    <node id="11919740758" x="6754.73" y="4718.28" type="priority"/>
    <node id="11919740761" x="6786.47" y="4816.00" type="priority"/>
    <node id="11919740766" x="6757.44" y="4899.71" type="priority"/>
    <node id="11919757871" x="6734.34" y="4905.20" type="priority"/>
    <node id="12044058616" x="8718.64" y="7483.92" type="priority"/>
    <node id="12044058617" x="8773.26" y="7431.08" type="priority"/>
    <node id="12044063255" x="7229.65" y="6643.61" type="priority"/>
    <node id="12044063267" x="5563.74" y="4937.66" type="priority"/>
    <node id="12044069348" x="2024.98" y="758.46" type="dead_end"/>
    <node id="12044069355" x="4354.96" y="2892.70" type="priority"/>
    <node id="12044069359" x="4460.52" y="2810.46" type="priority"/>
    <node id="12044069360" x="4385.71" y="2896.05" type="right_before_left"/>
    <node id="12044069363" x="4394.20" y="2932.99" type="priority"/>
    <node id="12044069364" x="4481.51" y="3022.14" type="priority"/>
    <node id="12044083295" x="2485.78" y="1310.27" type="dead_end"/>
    <node id="12044095473" x="5526.35" y="4859.71" type="priority"/>
    <node id="12044095474" x="5587.82" y="4987.23" type="priority"/>
    <node id="12044095475" x="5534.49" y="4854.21" type="priority"/>
    <node id="12044095479" x="5601.64" y="4887.63" type="priority"/>
    <node id="12044095481" x="5446.45" y="4679.22" type="right_before_left"/>
    <node id="12044095486" x="5293.77" y="4425.08" type="priority"/>
    <node id="12044165569" x="5498.34" y="4786.99" type="priority"/>
    <node id="12044165571" x="5492.87" y="4669.95" type="priority"/>
    <node id="12044165577" x="7313.42" y="6674.64" type="priority"/>
    <node id="1209790512" x="8859.54" y="8367.77" type="right_before_left"/>
    <node id="1209790517" x="8832.40" y="8437.56" type="right_before_left"/>
    <node id="1209790523" x="8868.86" y="8412.75" type="right_before_left"/>
    <node id="1209790527" x="8829.24" y="8421.34" type="right_before_left"/>