<edges xmlns:xsi="http://www.w3.org/2001/XMLSchema-instance" version="1.16" xsi:noNamespaceSchemaLocation="http://sumo.dlr.de/xsd/edges_file.xsd">
    <location netOffset="-429878.26,-5357435.97" convBoundary="0.00,0.00,14628.24,12341.61" origBoundary="-1.977429,47.352657,2.316477,48.477215" projParameter="+proj=utm +zone=31 +ellps=WGS84 +datum=WGS84 +units=m +no_defs" />

    <edge id="-1036374550" from="2318242843" to="248542628" priority="12" type="highway.primary" numLanes="2" speed="13.89" disallow="tram rail_urban rail rail_electric rail_fast ship">
        <param key="ref" value="D 191" />
    </edge>
    <edge id="-1036374554" from="1929544990" to="2318242892" priority="12" type="highway.primary" numLanes="2" speed="22.22" shape="11129.18,7622.18 11141.43,7634.14 11156.92,7649.27" disallow="tram rail_urban rail rail_electric rail_fast ship">
        <param key="ref" value="D 191" />
    </edge>
    <edge id="-1036374556" from="2318242851" to="9548142194" priority="12" type="highway.primary" numLanes="1" speed="13.89" shape="11133.21,7529.50 11157.67,7519.16 11184.41,7506.44 11222.20,7486.83" disallow="tram rail_urban rail rail_electric rail_fast ship">
        <param key="ref" value="D 837" />
    </edge>
    <edge id="-1037801534" from="9558969456" to="2318242843" priority="12" type="highway.primary" numLanes="2" speed="19.44" shape="10889.59,7505.88 10905.89,7507.44 10939.31,7512.85" disallow="tram rail_urban rail rail_electric rail_fast ship">
        <param key="ref" value="D 191" />
    </edge>
    <edge id="-105353213#0" from="4253381902" to="1213893921" priority="12" type="highway.primary" numLanes="1" speed="22.22" shape="10440.41,7493.98 10599.25,7519.02 10643.07,7520.45 10749.18,7513.42 10805.84,7507.92" disallow="tram rail_urban rail rail_electric rail_fast ship">
        <param key="ref" value="D 191" />
    </edge>
    <edge id="-105353213#1" from="248542654" to="4253381902" priority="12" type="highway.primary" numLanes="1" speed="22.22" disallow="tram rail_urban rail rail_electric rail_fast ship">
        <param key="ref" value="D 191" />
    </edge>
    <edge id="-105353222#0" from="2318242892" to="1929545023" priority="12" type="highway.primary" numLanes="2" speed="22.22" shape="11156.92,7649.27 11223.98,7717.29 11288.75,7781.59 11304.43,7797.93" disallow="tram rail_urban rail rail_electric rail_fast ship">
        <param key="ref" value="D 191" />
    </edge>
    <edge id="-1061105470" from="5364746884" to="5364746883" priority="3" type="highway.residential" numLanes="1" speed="13.89" disallow="tram rail_urban rail rail_electric rail_fast ship" />
    <edge id="-1061105471" from="5364746884" to="5364746911" priority="3" type="highway.residential" numLanes="1" speed="13.89" disallow="tram rail_urban rail rail_electric rail_fast ship" />
    <edge id="-1061105472" from="5364746910" to="5364746909" priority="3" type="highway.residential" numLanes="1" speed="8.33" shape="6992.54,8704.22 6978.11,8755.65 6975.24,8765.89" disallow="tram rail_urban rail rail_electric rail_fast ship" />
    <edge id="-1061105473" from="977231854" to="5364746910" priority="3" type="highway.residential" numLanes="1" speed="8.33" shape="7030.80,8712.25 7002.11,8706.22 6992.54,8704.22" disallow="tram rail_urban rail rail_electric rail_fast ship" />
    <edge id="-1061105474#0" from="5364322874" to="977231854" priority="3" type="highway.residential" numLanes="1" speed="8.33" disallow="tram rail_urban rail rail_electric rail_fast ship">
        <param key="ref" value="CR 50" />
    </edge>
    <edge id="-1061105474#1" from="518372052" to="5364322874" priority="3" type="highway.residential" numLanes="1" speed="8.33" disallow="tram rail_urban rail rail_electric rail_fast ship">
        <param key="ref" value="CR 50" />
    </edge>
    <edge id="-1061105474#2" from="5364748541" to="518372052" priority="3" type="highway.residential" numLanes="1" speed="8.33" shape="7117.84,8477.33 7106.07,8501.07 7095.20,8520.54 7092.96,8525.85 7085.85,8545.77 7058.44,8626.29" disallow="tram rail_urban rail rail_electric rail_fast ship">
        <param key="ref" value="CR 50" />
    </edge>
    <edge id="-1066865834" from="2122863870" to="983464087" priority="4" type="highway.unclassified" numLanes="1" speed="13.89" shape="4672.24,6563.98 4670.80,6559.79 4664.90,6542.84 4662.29,6535.37 4660.93,6519.96 4663.81,6503.52 4674.28,6490.72 4690.60,6477.47 4754.58,6432.01 4782.71,6393.70 4791.95,6385.48 4803.59,6379.61 4816.83,6374.90 4821.55,6371.49 4825.03,6365.74" disallow="tram rail_urban rail rail_electric rail_fast ship" />
    <edge id="-1066933279#0" from="975886850" to="975885504" priority="4" type="highway.unclassified" numLanes="1" speed="13.89" disallow="tram rail_urban rail rail_electric rail_fast ship">
        <param key="ref" value="CR 25" />
    </edge>
    <edge id="-1066933279#1" from="975886855" to="975886850" priority="4" type="highway.unclassified" numLanes="1" speed="13.89" shape="5563.89,6668.91 5549.50,6674.53 5512.35,6688.41 5500.49,6693.29 5496.19,6698.49 5493.37,6705.45" disallow="tram rail_urban rail rail_electric rail_fast ship">
        <param key="ref" value="CR 25" />
    </edge>
    <edge id="-1066963199#0" from="1931137114" to="1768101105" priority="3" type="highway.residential" numLanes="1" speed="13.89" disallow="tram rail_urban rail rail_electric rail_fast ship" />
    <edge id="-1066963199#1" from="1588949677" to="1931137114" priority="3" type="highway.residential" numLanes="1" speed="13.89" disallow="tram rail_urban rail rail_electric rail_fast ship" />
    <edge id="-1066963200#0" from="1931195535" to="1931195546" priority="4" type="highway.unclassified" numLanes="1" speed="13.89" shape="11113.15,10439.21 11128.52,10448.44 11178.92,10478.34 11189.68,10484.15 11208.93,10491.41 11286.96,10525.55" disallow="tram rail_urban rail rail_electric rail_fast ship" />
    <edge id="-1066963200#1" from="1931137091" to="1931195535" priority="4" type="highway.unclassified" numLanes="1" speed="13.89" shape="11047.35,10409.91 11075.21,10419.19 11113.15,10439.21" disallow="tram rail_urban rail rail_electric rail_fast ship" />
    <edge id="-1066963200#2" from="1931137096" to="1931137091" priority="4" type="highway.unclassified" numLanes="1" speed="13.89" shape="10918.76,10415.51 11015.02,10406.12 11047.35,10409.91" disallow="tram rail_urban rail rail_electric rail_fast ship" />
    <edge id="-1066963202" from="976140134" to="976140133" priority="3" type="highway.residential" numLanes="1" speed="13.89" shape="10393.32,9278.59 10385.21,9251.72 10382.32,9246.52" disallow="tram rail_urban rail rail_electric rail_fast ship" />
    <edge id="-1067475885#0" from="454642427" to="5447668638" priority="4" type="highway.unclassified" numLanes="1" speed="8.33" disallow="tram rail_urban rail rail_electric rail_fast ship" />
    <edge id="-1067475885#1" from="454642431" to="454642427" priority="4" type="highway.unclassified" numLanes="1" speed="8.33" shape="7203.41,6686.91 7211.15,6693.81 7223.56,6704.89 7229.35,6709.99 7290.78,6762.35 7324.62,6791.78 7355.79,6816.33 7371.29,6828.54" disallow="tram rail_urban rail rail_electric rail_fast ship" />
    <edge id="-1067477308#0" from="304000162" to="2988535797" priority="10" type="highway.tertiary" numLanes="1" speed="22.22" disallow="tram rail_urban rail rail_electric rail_fast ship" />
    <edge id="-1067477308#1" from="10087663157" to="304000162" priority="10" type="highway.tertiary" numLanes="1" speed="22.22" shape="8860.03,6829.49 8846.79,6817.79 8833.70,6807.76 8819.55,6798.81 8766.01,6772.85 8751.89,6760.34" disallow="tram rail_urban rail rail_electric rail_fast ship" />
    <edge id="-1067477308#2" from="974939114" to="10087663157" priority="10" type="highway.tertiary" numLanes="1" speed="22.22" disallow="tram rail_urban rail rail_electric rail_fast ship" />
    <edge id="-1067477308#3" from="974939115" to="974939114" priority="10" type="highway.tertiary" numLanes="1" speed="22.22" shape="8906.51,6871.77 8899.77,6864.77 8882.97,6849.77" disallow="tram rail_urban rail rail_electric rail_fast ship" />
    <edge id="-1067477308#4" from="974939118" to="974939115" priority="10" type="highway.tertiary" numLanes="1" speed="22.22" disallow="tram rail_urban rail rail_electric rail_fast ship" />
    <edge id="-1067477308#5" from="304000370" to="974939118" priority="10" type="highway.tertiary" numLanes="1" speed="22.22" shape="8933.19,6892.78 8927.97,6888.57 8915.16,6878.25" disallow="tram rail_urban rail rail_electric rail_fast ship" />
    <edge id="-1067477309" from="2988535797" to="306263511" priority="10" type="highway.tertiary" numLanes="1" speed="22.22" shape="8733.57,6758.61 8730.53,6757.25 8724.50,6754.56 8672.27,6738.63 8656.95,6730.69 8645.65,6721.73 8635.79,6713.91" disallow="tram rail_urban rail rail_electric rail_fast ship" />
    <edge id="-1067502634" from="2121191902" to="2121134038" priority="4" type="highway.unclassified" numLanes="1" speed="13.89" shape="3947.30,6957.16 3937.15,6958.95 3934.92,6959.21" disallow="tram rail_urban rail rail_electric rail_fast ship" />
    <edge id="-1071371039" from="2988501548" to="356261813" priority="4" type="highway.unclassified" numLanes="1" speed="13.89" shape="5860.68,5553.04 5847.90,5529.29 5841.66,5524.51 5834.17,5525.92 5833.92,5543.11 5882.60,5627.59 5901.95,5658.22 5900.38,5671.42" disallow="tram rail_urban rail rail_electric rail_fast ship" />
    <edge id="-1071371042" from="454635775" to="454635658" priority="3" type="highway.residential" numLanes="1" speed="13.89" shape="6569.16,6369.10 6587.60,6363.68 6614.52,6355.52 6632.26,6350.56" disallow="tram rail_urban rail rail_electric rail_fast ship" />
    <edge id="-1071371044#0" from="610927033" to="454642431" priority="10" type="highway.tertiary" numLanes="1" speed="22.22" shape="7209.42,6655.69 7207.59,6665.22 7203.41,6686.91" disallow="tram rail_urban rail rail_electric rail_fast ship" />
    <edge id="-1097203750" from="316152191" to="2790895469" priority="3" type="highway.residential" numLanes="1" speed="8.33" disallow="tram rail_urban rail rail_electric rail_fast ship" />
    <edge id="-1097203755" from="454636761" to="5442461789" priority="4" type="highway.unclassified" numLanes="1" speed="13.89" disallow="tram rail_urban rail rail_electric rail_fast ship" />
    <edge id="-1097203756" from="385070667" to="971745560" priority="11" type="highway.secondary" numLanes="1" speed="27.78" shape="6426.28,6640.59 6432.55,6645.57 6438.13,6650.67" disallow="tram rail_urban rail rail_electric rail_fast ship">
        <param key="ref" value="D 21" />
    </edge>
    <edge id="-1097203758" from="6225369244" to="312947487" priority="4" type="highway.unclassified" numLanes="1" speed="19.44" shape="6887.71,5925.51 6823.47,5874.17 6797.68,5852.62 6778.57,5835.98 6759.59,5815.57 6712.22,5753.84" disallow="tram rail_urban rail rail_electric rail_fast ship" />
    <edge id="-1098303712" from="454641650" to="2284486298" priority="3" type="highway.residential" numLanes="1" speed="13.89" disallow="tram rail_urban rail rail_electric rail_fast ship" />
    <edge id="-1098303713" from="2284486298" to="2611512028" priority="3" type="highway.residential" numLanes="1" speed="13.89" disallow="tram rail_urban rail rail_electric rail_fast ship" />
    <edge id="-1098303716" from="455602648" to="971096960" priority="10" type="highway.tertiary" numLanes="1" speed="22.22" shape="8545.21,7331.79 8565.46,7315.89 8589.22,7296.73 8590.74,7295.50" disallow="tram rail_urban rail rail_electric rail_fast ship" />
    <edge id="-1098303718" from="429722461" to="1929545790" priority="11" type="highway.secondary" numLanes="1" speed="13.89" disallow="tram rail_urban rail rail_electric rail_fast ship">
        <param key="ref" value="D 17" />
    </edge>
    <edge id="-1098303720" from="379589626" to="976140126" priority="11" type="highway.secondary" numLanes="1" speed="13.89" shape="10009.35,9047.72 10014.31,9054.04 10030.65,9074.83" disallow="tram rail_urban rail rail_electric rail_fast ship">
        <param key="ref" value="D 17" />
    </edge>
    <edge id="-1101781120" from="248544447" to="392475963" priority="12" type="highway.primary" numLanes="2" speed="13.89" disallow="tram rail_urban rail rail_electric rail_fast ship">
        <param key="ref" value="D 191" />
    </edge>
    <edge id="-1101781121#0" from="7524515724" to="248544433" priority="12" type="highway.primary" numLanes="2" speed="13.89" disallow="tram rail_urban rail rail_electric rail_fast ship">
        <param key="ref" value="D 191" />
    </edge>
    <edge id="-1101781121#1" from="7524515723" to="7524515724" priority="12" type="highway.primary" numLanes="2" speed="13.89" disallow="tram rail_urban rail rail_electric rail_fast ship">
        <param key="ref" value="D 191" />
    </edge>
    <edge id="-1101781121#2" from="392475963" to="7524515723" priority="12" type="highway.primary" numLanes="2" speed="13.89" disallow="tram rail_urban rail rail_electric rail_fast ship">
        <param key="ref" value="D 191" />
    </edge>
    <edge id="-1101781123#1" from="248544433" to="976779379" priority="12" type="highway.primary" numLanes="2" speed="13.89" shape="6785.67,8200.62 6832.41,8191.41 6853.47,8189.52 6859.30,8189.42 6869.22,8189.27 6885.85,8191.21" disallow="tram rail_urban rail rail_electric rail_fast ship">
        <param key="ref" value="D 191" />
    </edge>
    <edge id="-1101781124#1" from="976779379" to="976779352" priority="12" type="highway.primary" numLanes="2" speed="13.89" shape="6885.85,8191.21 6898.87,8193.01 6931.51,8200.05 6938.61,8201.35" disallow="tram rail_urban rail rail_electric rail_fast ship">
        <param key="ref" value="D 191" />
    </edge>
    <edge id="-1101783586" from="976509853" to="976210961" priority="12" type="highway.primary" numLanes="2" speed="13.89" disallow="tram rail_urban rail rail_electric rail_fast ship">
        <param key="ref" value="D 191" />
    </edge>
    <edge id="-1101783587" from="610924238" to="976510031" priority="10" type="highway.tertiary" numLanes="1" speed="22.22" shape="7333.19,8172.84 7295.09,8215.86 7287.16,8224.12" disallow="tram rail_urban rail rail_electric rail_fast ship" />
    <edge id="-1101783589#0" from="10082385484" to="10082385488" priority="3" type="highway.residential" numLanes="1" speed="13.89" shape="7962.15,8082.67 7961.56,8089.77 7961.37,8110.54 7951.32,8125.28" disallow="tram rail_urban rail rail_electric rail_fast ship" />
    <edge id="-1101783589#1" from="10082385485" to="10082385484" priority="3" type="highway.residential" numLanes="1" speed="13.89" shape="7924.16,8109.68 7927.74,8088.49 7947.06,8085.16 7955.73,8083.03 7962.15,8082.67" disallow="tram rail_urban rail rail_electric rail_fast ship" />
    <edge id="-1101783590#0" from="974220957" to="974220952" priority="3" type="highway.residential" numLanes="1" speed="13.89" shape="8007.94,8047.11 8017.86,8037.14 8022.36,8030.02 8022.01,8019.61" disallow="tram rail_urban rail rail_electric rail_fast ship" />
    <edge id="-1101783590#1" from="10087663139" to="974220957" priority="3" type="highway.residential" numLanes="1" speed="13.89" shape="8040.08,8079.44 8029.93,8083.30 8007.94,8047.11" disallow="tram rail_urban rail rail_electric rail_fast ship" />
    <edge id="-1101783593" from="2178908567" to="2179091696" priority="4" type="highway.unclassified" numLanes="1" speed="13.89" disallow="tram rail_urban rail rail_electric rail_fast ship" />
    <edge id="-1101783594" from="12044058616" to="971096937" priority="12" type="highway.primary" numLanes="2" speed="13.89" disallow="tram rail_urban rail rail_electric rail_fast ship">
        <param key="ref" value="D 191" />
    </edge>
    <edge id="-1101783597" from="10082385505" to="379591214" priority="11" type="highway.secondary" numLanes="1" speed="27.78" shape="9230.09,7303.69 9229.85,7311.88 9230.67,7315.73 9235.20,7323.77 9243.49,7334.17" disallow="tram rail_urban rail rail_electric rail_fast ship">
        <param key="ref" value="D 17" />
    </edge>
    <edge id="-1101783598" from="365953450" to="10082385505" priority="12" type="highway.primary" numLanes="2" speed="13.89" disallow="tram rail_urban rail rail_electric rail_fast ship">
        <param key="ref" value="D 191" />
    </edge>
    <edge id="-1101783599" from="2167610390" to="10082385501" priority="12" type="highway.primary" numLanes="2" speed="13.89" shape="9164.72,7302.19 9189.39,7300.13 9195.77,7300.54" disallow="tram rail_urban rail rail_electric rail_fast ship">
        <param key="ref" value="D 191" />
    </edge>
    <edge id="-1101783600#0" from="981541280" to="981541270" priority="4" type="highway.unclassified" numLanes="1" speed="13.89" shape="9225.44,7273.80 9208.23,7282.10 9202.46,7286.12" disallow="tram rail_urban rail rail_electric rail_fast ship">
        <param key="ref" value="CR 70" />
    </edge>
    <edge id="-1101783600#1" from="2318244649" to="981541280" priority="4" type="highway.unclassified" numLanes="1" speed="13.89" disallow="tram rail_urban rail rail_electric rail_fast ship">
        <param key="ref" value="CR 70" />
    </edge>
    <edge id="-1101783600#2" from="981541303" to="2318244649" priority="4" type="highway.unclassified" numLanes="1" speed="13.89" shape="9406.60,7140.68 9388.71,7149.24 9378.72,7155.33 9361.64,7169.69 9329.68,7205.61 9302.36,7230.24 9285.72,7241.35 9269.44,7250.18 9232.58,7270.10" disallow="tram rail_urban rail rail_electric rail_fast ship">
        <param key="ref" value="CR 70" />
    </edge>
    <edge id="-1101868121" from="955282234" to="1489701483" priority="12" type="highway.primary" numLanes="1" speed="13.89" shape="9621.57,7365.09 9752.84,7386.71 9830.69,7400.27" disallow="tram rail_urban rail rail_electric rail_fast ship">
        <param key="ref" value="D 191" />
    </edge>
    <edge id="-1101868122#0" from="251141806" to="1964113123" priority="12" type="highway.primary" numLanes="1" speed="22.22" shape="9285.26,5770.68 9289.81,5792.94 9295.07,5819.03 9308.22,5862.97" disallow="tram rail_urban rail rail_electric rail_fast ship">
        <param key="ref" value="D 721" />
    </edge>
    <edge id="-1101868122#1" from="286921416" to="251141806" priority="12" type="highway.primary" numLanes="1" speed="22.22" shape="9281.72,5696.12 9281.59,5719.70 9283.15,5744.00 9285.26,5770.68" disallow="tram rail_urban rail rail_electric rail_fast ship">
        <param key="ref" value="D 721" />
    </edge>
    <edge id="-1101868122#2" from="251141807" to="286921416" priority="12" type="highway.primary" numLanes="1" speed="22.22" shape="9321.12,5412.23 9314.39,5451.81 9294.78,5578.66 9285.52,5631.59 9282.12,5665.08 9281.72,5696.12" disallow="tram rail_urban rail rail_electric rail_fast ship">
        <param key="ref" value="D 721" />
    </edge>
    <edge id="-1101868122#3" from="1964113096" to="251141807" priority="12" type="highway.primary" numLanes="1" speed="22.22" shape="9379.28,5005.57 9375.99,5054.93 9371.33,5097.37 9339.15,5303.30 9321.12,5412.23" disallow="tram rail_urban rail rail_electric rail_fast ship">
        <param key="ref" value="D 721" />
    </edge>
    <edge id="-1101868122#4" from="2988535417" to="1964113096" priority="12" type="highway.primary" numLanes="1" speed="22.22" shape="9314.55,4669.82 9335.83,4738.22 9363.44,4855.70 9373.74,4915.53 9379.41,4968.64 9379.28,5005.57" disallow="tram rail_urban rail rail_electric rail_fast ship">
        <param key="ref" value="D 721" />
    </edge>
    <edge id="-1101868122#5" from="1964030860" to="2988535417" priority="12" type="highway.primary" numLanes="1" speed="22.22" shape="9133.21,3993.25 9205.50,4266.35 9275.63,4524.02 9314.21,4668.73 9314.55,4669.82" disallow="tram rail_urban rail rail_electric rail_fast ship">
        <param key="ref" value="D 721" />
    </edge>
    <edge id="-1101868122#6" from="5879603718" to="1964030860" priority="12" type="highway.primary" numLanes="1" speed="22.22" disallow="tram rail_urban rail rail_electric rail_fast ship">
        <param key="ref" value="D 721" />
    </edge>
    <edge id="-1103845597" from="298379331" to="298379503" priority="11" type="highway.secondary" numLanes="1" speed="27.78" shape="7782.20,6770.24 7792.69,6769.77 7802.02,6769.27 7822.07,6766.92" disallow="tram rail_urban rail rail_electric rail_fast ship">
        <param key="ref" value="D 49" />
    </edge>
    <edge id="-1103845598" from="339915391" to="298379331" priority="11" type="highway.secondary" numLanes="1" speed="27.78" shape="7747.30,6764.78 7763.84,6768.63 7782.20,6770.24" disallow="tram rail_urban rail rail_electric rail_fast ship">
        <param key="ref" value="D 49" />
    </edge>
    <edge id="-1103845599" from="286399303" to="339915391" priority="11" type="highway.secondary" numLanes="1" speed="27.78" shape="7584.29,6650.15 7594.55,6663.49 7606.03,6683.97 7621.85,6708.69 7631.15,6719.00 7640.28,6727.29 7655.62,6737.45 7673.63,6745.60 7747.30,6764.78" disallow="tram rail_urban rail rail_electric rail_fast ship">
        <param key="ref" value="D 49" />
    </edge>
    <edge id="-115450042#0" from="2418644166" to="294106420" priority="4" type="highway.unclassified" numLanes="1" speed="13.89" shape="4074.45,10157.71 4078.68,10153.64 4089.24,10142.08 4093.58,10135.51 4097.20,10128.24 4111.13,10095.57" disallow="tram rail_urban rail rail_electric rail_fast ship" />
    <edge id="-115450042#1" from="340400355" to="2418644166" priority="4" type="highway.unclassified" numLanes="1" speed="13.89" disallow="tram rail_urban rail rail_electric rail_fast ship" />
    <edge id="-115450042#2" from="294106324" to="340400355" priority="4" type="highway.unclassified" numLanes="1" speed="13.89" shape="2836.51,11909.22 2952.61,11825.02 3000.69,11783.93 3047.18,11741.47 3086.42,11706.60 3113.56,11687.70 3165.17,11659.40 3253.43,11611.51 3283.76,11593.56 3322.28,11564.63 3355.97,11529.05 3384.68,11490.95 3417.01,11441.84 3466.63,11363.66 3504.54,11315.76 3594.99,11217.23 3634.41,11176.81 3645.89,11161.70 3658.88,11140.40 3669.58,11117.72 3688.30,11074.77 3705.15,11035.78 3715.39,11000.69 3720.46,10983.98 3737.39,10928.72 3744.26,10904.20 3760.37,10852.38 3783.29,10780.33 3791.37,10761.80 3808.40,10721.89 3862.71,10600.47 3873.67,10574.99 3928.27,10426.56 3980.06,10281.48 3988.45,10259.51 3995.71,10243.33 4004.08,10230.64 4016.01,10212.94" disallow="tram rail_urban rail rail_electric rail_fast ship" />
    <edge id="-1154885918" from="610925883" to="610925941" priority="3" type="highway.residential" numLanes="1" speed="13.89" shape="7026.59,8108.43 6989.41,8099.02 6993.17,8064.58" disallow="tram rail_urban rail rail_electric rail_fast ship" />
    <edge id="-1158622288" from="971047897" to="8068573051" priority="3" type="highway.residential" numLanes="1" speed="8.33" shape="9018.52,7058.79 9016.59,7061.84 9014.35,7065.37 9013.56,7072.95 9009.60,7118.72 8999.23,7214.61" disallow="tram rail_urban rail rail_electric rail_fast ship" />
    <edge id="-115893510" from="311095111" to="971054509" priority="2" type="highway.living_street" numLanes="1" speed="5.56" disallow="tram rail_urban rail rail_electric rail_fast ship" />
    <edge id="-115893515" from="10903753510" to="971054507" priority="2" type="highway.living_street" numLanes="1" speed="5.56" disallow="tram rail_urban rail rail_electric rail_fast ship" />
    <edge id="-115910352#0" from="971047881" to="454645169" priority="3" type="highway.residential" numLanes="1" speed="13.89" shape="8570.13,6785.87 8528.00,6835.40 8462.17,6900.95 8441.36,6925.98 8435.26,6934.58 8399.17,6992.63" disallow="tram rail_urban rail rail_electric rail_fast ship" />
    <edge id="-115910352#1" from="442005152" to="971047881" priority="3" type="highway.residential" numLanes="1" speed="13.89" disallow="tram rail_urban rail rail_electric rail_fast ship" />
    <edge id="-1161027806#0" from="5202726283" to="2988592788" priority="4" type="highway.unclassified" numLanes="1" speed="8.33" shape="2636.35,7210.98 2632.85,7211.75 2606.71,7215.66" disallow="tram rail_urban rail rail_electric rail_fast ship" />
    <edge id="-1161027806#1" from="4803266904" to="5202726283" priority="4" type="highway.unclassified" numLanes="1" speed="8.33" shape="2909.66,7067.47 2845.15,7094.06 2827.52,7103.43 2726.55,7174.93 2685.49,7199.10 2668.30,7203.25 2646.09,7208.81 2636.35,7210.98" disallow="tram rail_urban rail rail_electric rail_fast ship" />
    <edge id="-1161027806#2" from="10087663121" to="4803266904" priority="4" type="highway.unclassified" numLanes="1" speed="8.33" shape="2970.61,7040.64 2914.28,7065.57 2909.66,7067.47" disallow="tram rail_urban rail rail_electric rail_fast ship" />
    <edge id="-1161027806#3" from="10798844165" to="10087663121" priority="4" type="highway.unclassified" numLanes="1" speed="8.33" shape="3037.02,7006.33 2980.15,7036.43 2970.61,7040.64" disallow="tram rail_urban rail rail_electric rail_fast ship" />
    <edge id="-1161027807#0" from="10271448688" to="10798844165" priority="4" type="highway.unclassified" numLanes="1" speed="13.89" shape="3417.67,6896.35 3239.04,6941.27 3187.83,6953.35 3106.04,6973.15 3078.53,6984.36 3037.02,7006.33" disallow="tram rail_urban rail rail_electric rail_fast ship" />
    <edge id="-1164082339" from="10826300391" to="5364322828" priority="4" type="highway.unclassified" numLanes="1" speed="13.89" disallow="tram rail_urban rail rail_electric rail_fast ship" />
    <edge id="-1167959911" from="454641211" to="971102901" priority="10" type="highway.tertiary" numLanes="1" speed="22.22" shape="7606.20,7208.54 7601.75,7207.26 7552.69,7193.06 7543.15,7190.30" disallow="tram rail_urban rail rail_electric rail_fast ship" />
    <edge id="-1167959912" from="971102901" to="2284486297" priority="10" type="highway.tertiary" numLanes="1" speed="22.22" disallow="tram rail_urban rail rail_electric rail_fast ship" />
    <edge id="-1167959916" from="534872334" to="971102910" priority="3" type="highway.residential" numLanes="1" speed="13.89" disallow="tram rail_urban rail rail_electric rail_fast ship" />
    <edge id="-1167959917" from="965972068" to="965971335" priority="3" type="highway.residential" numLanes="1" speed="13.89" shape="6535.29,9812.73 6504.84,9807.45 6501.33,9806.84" disallow="tram rail_urban rail rail_electric rail_fast ship" />
    <edge id="-1167959918#0" from="1609041990" to="965970178" priority="3" type="highway.residential" numLanes="1" speed="13.89" shape="6392.31,9977.43 6388.34,9970.76 6365.79,9910.61" disallow="tram rail_urban rail rail_electric rail_fast ship" />
    <edge id="-1167959918#1" from="965972803" to="1609041990" priority="3" type="highway.residential" numLanes="1" speed="13.89" disallow="tram rail_urban rail rail_electric rail_fast ship" />
    <edge id="-1167959918#2" from="1607941203" to="965972803" priority="3" type="highway.residential" numLanes="1" speed="13.89" disallow="tram rail_urban rail rail_electric rail_fast ship" />
    <edge id="-1173532320" from="971054507" to="974167240" priority="2" type="highway.living_street" numLanes="1" speed="5.56" shape="8062.35,7154.47 8057.24,7152.03 8016.21,7135.12" disallow="tram rail_urban rail rail_electric rail_fast ship" />
    <edge id="-1173532323" from="971054509" to="10903666495" priority="2" type="highway.living_street" numLanes="1" speed="5.56" disallow="tram rail_urban rail rail_electric rail_fast ship" />
    <edge id="-1173532325" from="974167240" to="10903666493" priority="2" type="highway.living_street" numLanes="1" speed="5.56" shape="8016.21,7135.12 7972.55,7115.07 7956.18,7108.10 7944.33,7104.58 7928.89,7102.85 7905.00,7099.84" disallow="tram rail_urban rail rail_electric rail_fast ship" />
    <edge id="-1173533056#0" from="2630150531" to="10903753510" priority="3" type="highway.residential" numLanes="1" speed="13.89" disallow="tram rail_urban rail rail_electric rail_fast ship" />
    <edge id="-1173533056#1" from="971054482" to="2630150531" priority="3" type="highway.residential" numLanes="1" speed="13.89" shape="8154.12,7014.97 8149.47,7020.75 8128.42,7053.06" disallow="tram rail_urban rail rail_electric rail_fast ship" />
    <edge id="-1173877518" from="2106762312" to="2106762324" priority="4" type="highway.unclassified" numLanes="1" speed="13.89" shape="4991.07,5969.82 5006.35,5993.57 5024.01,6067.12 5039.95,6090.61 5062.03,6110.71 5106.03,6138.14 5165.32,6157.32 5222.26,6169.95 5277.89,6176.90 5460.87,6190.90" disallow="tram rail_urban rail rail_electric rail_fast ship" />
    <edge id="-117406194" from="1322661351" to="975885687" priority="3" type="highway.residential" numLanes="1" speed="13.89" shape="6407.23,7774.59 6410.04,7789.11 6385.37,7882.09" disallow="tram rail_urban rail rail_electric rail_fast ship" />
    <edge id="-117406195" from="1322661349" to="975885686" priority="3" type="highway.residential" numLanes="1" speed="13.89" shape="6339.74,7793.04 6341.51,7807.27 6327.22,7864.28" disallow="tram rail_urban rail rail_electric rail_fast ship" />
    <edge id="-1211586487" from="1929545272" to="976116199" priority="3" type="highway.residential" numLanes="1" speed="13.89" shape="9407.33,8244.76 9372.46,8232.21 9243.87,8197.07 9239.01,8195.74 9230.79,8193.49" disallow="tram rail_urban rail rail_electric rail_fast ship" />
    <edge id="-1211586488" from="1588949663" to="11224884034" priority="3" type="highway.residential" numLanes="1" speed="13.89" shape="9595.77,8459.50 9582.48,8448.60 9571.64,8439.71 9548.16,8418.09" disallow="tram rail_urban rail rail_electric rail_fast ship" />
    <edge id="-1213407992" from="982907748" to="982908074" priority="11" type="highway.secondary" numLanes="1" speed="13.89" shape="4068.82,6560.40 4139.05,6558.77 4198.16,6556.51" disallow="tram rail_urban rail rail_electric rail_fast ship">
        <param key="ref" value="D 21" />
    </edge>