<?xml version="1.0" encoding="UTF-8"?>

<!-- generated on 2025-04-08 22:13:59 by Eclipse SUMO netconvert Version 1.19.0
<configuration xmlns:xsi="http://www.w3.org/2001/XMLSchema-instance" xsi:noNamespaceSchemaLocation="http://sumo.dlr.de/xsd/netconvertConfiguration.xsd">

    <input>
        <sumo-net-file value="etampes/etampes.net.xml"/>
    </input>

    <output>
        <plain-output-prefix value="etampes/etampes"/>
    </output>

    <processing>
        <geometry.min-radius.fix.railways value="false"/>
        <geometry.max-grade.fix value="false"/>
        <offset.disable-normalization value="true"/>
        <lefthand value="0"/>
    </processing>

    <tls_building>
        <tls.ignore-internal-junction-jam value="1"/>
    </tls_building>

    <junctions>
        <no-turnarounds value="true"/>
        <junctions.corner-detail value="5"/>
        <junctions.limit-turn-speed value="5.50"/>
        <rectangular-lane-cut value="0"/>
    </junctions>

    <pedestrian>
        <walkingareas value="0"/>
    </pedestrian>

</configuration>
-->

<connections version="1.16" xmlns:xsi="http://www.w3.org/2001/XMLSchema-instance" xsi:noNamespaceSchemaLocation="http://sumo.dlr.de/xsd/connections_file.xsd">
    <connection from="-1005075835" to="565082181#1" fromLane="0" toLane="0"/>
    <connection from="-1005075835" to="-565082181#0" fromLane="0" toLane="0"/>
    <connection from="-1005075835" to="1005075835" fromLane="0" toLane="0"/>

    <connection from="-1005075836" to="1005075836" fromLane="0" toLane="0"/>

    <connection from="-1014380903" to="565001706#1" fromLane="0" toLane="0"/>
    <connection from="-1014380903" to="-926826734" fromLane="0" toLane="0"/>
    <connection from="-1014380903" to="-565001706#0" fromLane="0" toLane="0"/>
    <connection from="-1014380903" to="1014380903" fromLane="0" toLane="0"/>

    <connection from="-1025826345" to="1025826345" fromLane="0" toLane="0"/>

    <connection from="-1036374550" to="1036374551" fromLane="0" toLane="0"/>
    <connection from="-1036374550" to="1036374551" fromLane="1" toLane="1"/>

    <connection from="-1036374554" to="182599604" fromLane="0" toLane="0"/>
    <connection from="-1036374554" to="-105353222#0" fromLane="0" toLane="0"/>
    <connection from="-1036374554" to="-105353222#0" fromLane="1" toLane="1"/>
    <connection from="-1036374554" to="105353222#1" fromLane="1" toLane="1"/>

    <connection from="-1036374556" to="-148126134#1" fromLane="0" toLane="0"/>

    <connection from="-1037801534" to="-1036374550" fromLane="0" toLane="0"/>
    <connection from="-1037801534" to="-1036374550" fromLane="1" toLane="1"/>

    <connection from="-1040754388" to="976351319#0" fromLane="0" toLane="0" keepClear="0"/>
    <connection from="-1040754388" to="1040754388" fromLane="0" toLane="0"/>

    <connection from="-1040754391" to="115400369#0" fromLane="0" toLane="0"/>
    <connection from="-1040754391" to="-28776720#1" fromLane="0" toLane="0"/>
    <connection from="-1040754391" to="1040754391" fromLane="0" toLane="0"/>

    <connection from="-104915431" to="104915435#6" fromLane="0" toLane="0"/>
    <connection from="-104915431" to="-104915435#5" fromLane="0" toLane="0"/>
    <connection from="-104915431" to="104915431" fromLane="0" toLane="0"/>

    <connection from="-104915432" to="-104915435#8" fromLane="0" toLane="0"/>
    <connection from="-104915432" to="104915435#9" fromLane="0" toLane="0"/>
    <connection from="-104915432" to="104915432" fromLane="0" toLane="0"/>

    <connection from="-104915435#0" to="104915435#0" fromLane="0" toLane="0"/>

    <connection from="-104915435#1" to="104915440" fromLane="0" toLane="0"/>
    <connection from="-104915435#1" to="-104915435#0" fromLane="0" toLane="0"/>
    <connection from="-104915435#1" to="104915435#1" fromLane="0" toLane="0"/>

    <connection from="-104915435#10" to="104915445" fromLane="0" toLane="0"/>
    <connection from="-104915435#10" to="-104915435#9" fromLane="0" toLane="0"/>
    <connection from="-104915435#10" to="104915435#10" fromLane="0" toLane="0"/>

    <connection from="-104915435#11" to="-104915440" fromLane="0" toLane="0"/>
    <connection from="-104915435#11" to="-104915435#10" fromLane="0" toLane="0"/>
    <connection from="-104915435#11" to="104915435#11" fromLane="0" toLane="0"/>

    <connection from="-104915435#2" to="-104915445" fromLane="0" toLane="0"/>
    <connection from="-104915435#2" to="-104915435#1" fromLane="0" toLane="0"/>
    <connection from="-104915435#2" to="104915435#2" fromLane="0" toLane="0"/>

    <connection from="-104915435#3" to="-104915432" fromLane="0" toLane="0"/>
    <connection from="-104915435#3" to="-104915435#2" fromLane="0" toLane="0"/>
    <connection from="-104915435#3" to="104915435#3" fromLane="0" toLane="0"/>

    <connection from="-104915435#4" to="-104915441" fromLane="0" toLane="0"/>
    <connection from="-104915435#4" to="-104915435#3" fromLane="0" toLane="0"/>
    <connection from="-104915435#4" to="104915435#4" fromLane="0" toLane="0"/>

    <connection from="-104915435#5" to="-104915450" fromLane="0" toLane="0"/>
    <connection from="-104915435#5" to="-104915435#4" fromLane="0" toLane="0"/>
    <connection from="-104915435#5" to="104915435#5" fromLane="0" toLane="0"/>

    <connection from="-104915435#6" to="-104915435#5" fromLane="0" toLane="0"/>
    <connection from="-104915435#6" to="104915431" fromLane="0" toLane="0"/>
    <connection from="-104915435#6" to="104915435#6" fromLane="0" toLane="0"/>

    <connection from="-104915435#7" to="104915450" fromLane="0" toLane="0"/>
    <connection from="-104915435#7" to="-104915435#6" fromLane="0" toLane="0"/>
    <connection from="-104915435#7" to="104915435#7" fromLane="0" toLane="0"/>

    <connection from="-104915435#8" to="104915441" fromLane="0" toLane="0"/>
    <connection from="-104915435#8" to="-104915435#7" fromLane="0" toLane="0"/>
    <connection from="-104915435#8" to="104915435#8" fromLane="0" toLane="0"/>

    <connection from="-104915435#9" to="104915432" fromLane="0" toLane="0"/>
    <connection from="-104915435#9" to="-104915435#8" fromLane="0" toLane="0"/>
    <connection from="-104915435#9" to="104915435#9" fromLane="0" toLane="0"/>

    <connection from="-104915440" to="-104915435#0" fromLane="0" toLane="0"/>
    <connection from="-104915440" to="104915435#1" fromLane="0" toLane="0"/>
    <connection from="-104915440" to="104915440" fromLane="0" toLane="0"/>

    <connection from="-104915441" to="-104915435#7" fromLane="0" toLane="0"/>
    <connection from="-104915441" to="104915435#8" fromLane="0" toLane="0"/>
    <connection from="-104915441" to="104915441" fromLane="0" toLane="0"/>

    <connection from="-104915445" to="-104915435#9" fromLane="0" toLane="0"/>
    <connection from="-104915445" to="104915435#10" fromLane="0" toLane="0"/>
    <connection from="-104915445" to="104915445" fromLane="0" toLane="0"/>

    <connection from="-104915450" to="-104915435#6" fromLane="0" toLane="0"/>
    <connection from="-104915450" to="104915435#7" fromLane="0" toLane="0"/>
    <connection from="-104915450" to="104915450" fromLane="0" toLane="0"/>

    <connection from="-1052194667" to="165253785#1" fromLane="0" toLane="0"/>
    <connection from="-1052194667" to="-165253785#0" fromLane="0" toLane="0"/>
    <connection from="-1052194667" to="1052194667" fromLane="0" toLane="0"/>

    <connection from="-1052194668" to="448387738#3" fromLane="0" toLane="0"/>
    <connection from="-1052194668" to="-448387738#2" fromLane="0" toLane="0"/>
    <connection from="-1052194668" to="1052194668" fromLane="0" toLane="0"/>

    <connection from="-105353213#0" to="-222880401" fromLane="0" toLane="0"/>
    <connection from="-105353213#0" to="-222880401" fromLane="0" toLane="1"/>

    <connection from="-105353213#1" to="426013445#0" fromLane="0" toLane="0"/>
    <connection from="-105353213#1" to="-105353213#0" fromLane="0" toLane="0"/>
    <connection from="-105353213#1" to="105353213#1" fromLane="0" toLane="0"/>

    <connection from="-105353222#0" to="-23038101#4" fromLane="0" toLane="0"/>
    <connection from="-105353222#0" to="-23038101#4" fromLane="1" toLane="1"/>
    <connection from="-105353222#0" to="182599569" fromLane="1" toLane="0"/>
    <connection from="-105353222#0" to="23038101#5" fromLane="1" toLane="1"/>

    <connection from="-1061105470" to="1061105470" fromLane="0" toLane="0"/>

    <connection from="-1061105471" to="1061105471" fromLane="0" toLane="0"/>

    <connection from="-1061105472" to="-556127321#1" fromLane="0" toLane="0"/>
    <connection from="-1061105472" to="1061105472" fromLane="0" toLane="0"/>

    <connection from="-1061105473" to="-1061105472" fromLane="0" toLane="0"/>
    <connection from="-1061105473" to="1061105473" fromLane="0" toLane="0"/>

    <connection from="-1061105474#0" to="-83868440#2" fromLane="0" toLane="0"/>
    <connection from="-1061105474#0" to="83981061#0" fromLane="0" toLane="0"/>
    <connection from="-1061105474#0" to="-1061105473" fromLane="0" toLane="0"/>
    <connection from="-1061105474#0" to="1061105474#0" fromLane="0" toLane="0"/>

    <connection from="-1061105474#1" to="-1061105474#0" fromLane="0" toLane="0"/>
    <connection from="-1061105474#1" to="-556084040#4" fromLane="0" toLane="0"/>
    <connection from="-1061105474#1" to="1061105474#1" fromLane="0" toLane="0"/>

    <connection from="-1061105474#2" to="-83868636" fromLane="0" toLane="0"/>
    <connection from="-1061105474#2" to="-1061105474#1" fromLane="0" toLane="0"/>

    <connection from="-1066865834" to="277508984#1" fromLane="0" toLane="0"/>
    <connection from="-1066865834" to="-200710895#1" fromLane="0" toLane="0"/>
    <connection from="-1066865834" to="-277508984#0" fromLane="0" toLane="0"/>
    <connection from="-1066865834" to="28754853" fromLane="0" toLane="0"/>

    <connection from="-1066933279#0" to="335699370#1" fromLane="0" toLane="0"/>
    <connection from="-1066933279#0" to="295165325#0" fromLane="0" toLane="0"/>
    <connection from="-1066933279#0" to="-335699370#0" fromLane="0" toLane="0"/>
    <connection from="-1066933279#0" to="1066933279#0" fromLane="0" toLane="0"/>

    <connection from="-1066933279#1" to="221343046#1" fromLane="0" toLane="0"/>
    <connection from="-1066933279#1" to="-1066933279#0" fromLane="0" toLane="0"/>
    <connection from="-1066933279#1" to="-221343046#0" fromLane="0" toLane="0"/>

    <connection from="-1066963199#0" to="1066963199#0" fromLane="0" toLane="0"/>

    <connection from="-1066963199#1" to="-1066963199#0" fromLane="0" toLane="0"/>
    <connection from="-1066963199#1" to="-182755986" fromLane="0" toLane="0"/>
    <connection from="-1066963199#1" to="1066963199#1" fromLane="0" toLane="0"/>

    <connection from="-1066963200#0" to="1066963200#0" fromLane="0" toLane="0"/>

    <connection from="-1066963200#1" to="182765456#0" fromLane="0" toLane="0"/>
    <connection from="-1066963200#1" to="-1066963200#0" fromLane="0" toLane="0"/>
    <connection from="-1066963200#1" to="1066963200#1" fromLane="0" toLane="0"/>

    <connection from="-1066963200#2" to="-1066963200#1" fromLane="0" toLane="0"/>
    <connection from="-1066963200#2" to="182765451" fromLane="0" toLane="0"/>
    <connection from="-1066963200#2" to="1066963200#2" fromLane="0" toLane="0"/>

    <connection from="-1066963201#0" to="-165253785#7" fromLane="0" toLane="0"/>
    <connection from="-1066963201#0" to="165253785#8" fromLane="0" toLane="0"/>
    <connection from="-1066963201#0" to="1066963201#0" fromLane="0" toLane="0"/>

    <connection from="-1066963201#1" to="-450665449" fromLane="0" toLane="0"/>
    <connection from="-1066963201#1" to="-1066963201#0" fromLane="0" toLane="0"/>
    <connection from="-1066963201#1" to="1066963201#1" fromLane="0" toLane="0"/>

    <connection from="-1066963202" to="-83863044#2" fromLane="0" toLane="0"/>
    <connection from="-1066963202" to="450665447" fromLane="0" toLane="0"/>
    <connection from="-1066963202" to="1066963202" fromLane="0" toLane="0"/>

    <connection from="-1067456668" to="-820861477" fromLane="0" toLane="0" keepClear="0"/>

    <connection from="-1067456669#0" to="-1067456668" fromLane="0" toLane="0"/>
    <connection from="-1067456669#0" to="820861476" fromLane="0" toLane="0"/>
    <connection from="-1067456669#0" to="1067456669#0" fromLane="0" toLane="0"/>

    <connection from="-1067456669#1" to="295160246" fromLane="0" toLane="0"/>
    <connection from="-1067456669#1" to="-1067456669#0" fromLane="0" toLane="0"/>
    <connection from="-1067456669#1" to="1067456669#1" fromLane="0" toLane="0"/>

    <connection from="-1067456670" to="418104992#0" fromLane="0" toLane="0"/>
    <connection from="-1067456670" to="-185745146#2" fromLane="0" toLane="0"/>
    <connection from="-1067456670" to="1067456670" fromLane="0" toLane="0"/>

    <connection from="-1067456671" to="1067456672" fromLane="0" toLane="0"/>
    <connection from="-1067456671" to="-970695325#2" fromLane="0" toLane="0"/>
    <connection from="-1067456671" to="1067456671" fromLane="0" toLane="0"/>

    <connection from="-1067456672" to="-970695325#2" fromLane="0" toLane="0"/>
    <connection from="-1067456672" to="1067456671" fromLane="0" toLane="0"/>
    <connection from="-1067456672" to="1067456672" fromLane="0" toLane="0"/>

    <connection from="-1067475885#0" to="-38455820#2" fromLane="0" toLane="0"/>

    <connection from="-1067475885#1" to="1215563989#0" fromLane="0" toLane="0"/>
    <connection from="-1067475885#1" to="335700687#0" fromLane="0" toLane="0"/>
    <connection from="-1067475885#1" to="-1067475885#0" fromLane="0" toLane="0"/>

    <connection from="-1067477308#0" to="-1067477309" fromLane="0" toLane="0"/>
    <connection from="-1067477308#0" to="295160249#0" fromLane="0" toLane="0"/>
    <connection from="-1067477308#0" to="1067477308#0" fromLane="0" toLane="0"/>

    <connection from="-1067477308#1" to="-1067477308#0" fromLane="0" toLane="0"/>
    <connection from="-1067477308#1" to="28328240#0" fromLane="0" toLane="0"/>
    <connection from="-1067477308#1" to="1067477308#1" fromLane="0" toLane="0"/>

    <connection from="-1067477308#2" to="1102416095" fromLane="0" toLane="0"/>
    <connection from="-1067477308#2" to="-1067477308#1" fromLane="0" toLane="0"/>

    <connection from="-1067477308#3" to="83711407" fromLane="0" toLane="0"/>
    <connection from="-1067477308#3" to="-1067477308#2" fromLane="0" toLane="0"/>
    <connection from="-1067477308#3" to="1067477308#3" fromLane="0" toLane="0"/>

    <connection from="-1067477308#4" to="-1067477308#3" fromLane="0" toLane="0"/>
    <connection from="-1067477308#4" to="83711408" fromLane="0" toLane="0"/>
    <connection from="-1067477308#4" to="1067477308#4" fromLane="0" toLane="0"/>

    <connection from="-1067477308#5" to="83711406" fromLane="0" toLane="0"/>
    <connection from="-1067477308#5" to="-1067477308#4" fromLane="0" toLane="0"/>
    <connection from="-1067477308#5" to="1067477308#5" fromLane="0" toLane="0"/>

    <connection from="-1067477309" to="-234997856" fromLane="0" toLane="0"/>
    <connection from="-1067477309" to="-27681008#4" fromLane="0" toLane="0"/>
    <connection from="-1067477309" to="1067477309" fromLane="0" toLane="0"/>

    <connection from="-1067502634" to="-202135669#1" fromLane="0" toLane="0"/>
    <connection from="-1067502634" to="-83824015#3" fromLane="0" toLane="0"/>
    <connection from="-1067502634" to="1067502635" fromLane="0" toLane="0"/>

    <connection from="-1071371039" to="1071371041" fromLane="0" toLane="0"/>
    <connection from="-1071371039" to="1071371039" fromLane="0" toLane="0"/>

    <connection from="-1071371042" to="-117396166" fromLane="0" toLane="0"/>
    <connection from="-1071371042" to="-38455165#5" fromLane="0" toLane="0"/>

    <connection from="-1071371044#0" to="-1067475885#1" fromLane="0" toLane="0"/>
    <connection from="-1071371044#0" to="-336962715" fromLane="0" toLane="0"/>
    <connection from="-1071371044#0" to="1071371044#0" fromLane="0" toLane="0"/>

    <connection from="-1075179891" to="-83461763#0" fromLane="0" toLane="0"/>
    <connection from="-1075179891" to="83461763#1" fromLane="0" toLane="0"/>
    <connection from="-1075179891" to="1075179891" fromLane="0" toLane="0"/>

    <connection from="-1076702959" to="565431085#1" fromLane="0" toLane="0"/>
    <connection from="-1076702959" to="1076702959" fromLane="0" toLane="0"/>

    <connection from="-1084118107" to="1084118107" fromLane="0" toLane="0"/>

    <connection from="-1084202895" to="464560603#6" fromLane="0" toLane="0"/>
    <connection from="-1084202895" to="1084202895" fromLane="0" toLane="0"/>

    <connection from="-1084202896" to="464560601#3" fromLane="0" toLane="0"/>
    <connection from="-1084202896" to="1084202896" fromLane="0" toLane="0"/>

    <connection from="-1086575018" to="1263785669" fromLane="0" toLane="0"/>
    <connection from="-1086575018" to="-1263785670" fromLane="0" toLane="0"/>
    <connection from="-1086575018" to="1086575018" fromLane="0" toLane="0"/>

    <connection from="-1086705637#0" to="182920802#1" fromLane="0" toLane="0"/>
    <connection from="-1086705637#0" to="-182920802#0" fromLane="0" toLane="0"/>
    <connection from="-1086705637#0" to="1086705637#0" fromLane="0" toLane="0"/>

    <connection from="-1086705637#1" to="1086705638" fromLane="0" toLane="0"/>
    <connection from="-1086705637#1" to="-1086705637#0" fromLane="0" toLane="0"/>
    <connection from="-1086705637#1" to="1086705637#1" fromLane="0" toLane="0"/>

    <connection from="-1086705638" to="-1086705637#0" fromLane="0" toLane="0"/>
    <connection from="-1086705638" to="1086705637#1" fromLane="0" toLane="0"/>
    <connection from="-1086705638" to="1086705638" fromLane="0" toLane="0"/>

    <connection from="-1086707878" to="83898727#6" fromLane="0" toLane="0"/>
    <connection from="-1086707878" to="-83898727#5" fromLane="0" toLane="0"/>
    <connection from="-1086707878" to="1086707878" fromLane="0" toLane="0"/>

    <connection from="-1086707879" to="83898727#4" fromLane="0" toLane="0"/>
    <connection from="-1086707879" to="-83898727#3" fromLane="0" toLane="0"/>
    <connection from="-1086707879" to="1086707879" fromLane="0" toLane="0"/>

    <connection from="-1086707880" to="83898727#3" fromLane="0" toLane="0"/>
    <connection from="-1086707880" to="-83898727#2" fromLane="0" toLane="0"/>
    <connection from="-1086707880" to="1086707880" fromLane="0" toLane="0"/>

    <connection from="-1086707881#0" to="-83898727#1" fromLane="0" toLane="0"/>
    <connection from="-1086707881#0" to="83898727#2" fromLane="0" toLane="0"/>
    <connection from="-1086707881#0" to="1086707881#0" fromLane="0" toLane="0"/>

    <connection from="-1086707881#1" to="-1086707881#0" fromLane="0" toLane="0"/>
    <connection from="-1086707881#1" to="1086707882" fromLane="0" toLane="0"/>
    <connection from="-1086707881#1" to="1086707881#1" fromLane="0" toLane="0"/>

    <connection from="-1086707882" to="1086707881#1" fromLane="0" toLane="0"/>
    <connection from="-1086707882" to="-1086707881#0" fromLane="0" toLane="0"/>
    <connection from="-1086707882" to="1086707882" fromLane="0" toLane="0"/>

    <connection from="-1086707883#0" to="-83898727#4" fromLane="0" toLane="0"/>
    <connection from="-1086707883#0" to="83898727#5" fromLane="0" toLane="0"/>
    <connection from="-1086707883#0" to="1086707883#0" fromLane="0" toLane="0"/>

    <connection from="-1086707883#1" to="-1086707883#0" fromLane="0" toLane="0"/>
    <connection from="-1086707883#1" to="1086707884" fromLane="0" toLane="0"/>
    <connection from="-1086707883#1" to="1086707883#1" fromLane="0" toLane="0"/>

    <connection from="-1086707884" to="1086707883#1" fromLane="0" toLane="0"/>
    <connection from="-1086707884" to="-1086707883#0" fromLane="0" toLane="0"/>
    <connection from="-1086707884" to="1086707884" fromLane="0" toLane="0"/>

    <connection from="-1086720714" to="31819424#2" fromLane="0" toLane="0"/>
    <connection from="-1086720714" to="-31819424#1" fromLane="0" toLane="0"/>
    <connection from="-1086720714" to="1086720714" fromLane="0" toLane="0"/>

    <connection from="-1086720715#0" to="-38509410#0" fromLane="0" toLane="0"/>
    <connection from="-1086720715#0" to="38509410#1" fromLane="0" toLane="0"/>
    <connection from="-1086720715#0" to="1086720715#0" fromLane="0" toLane="0"/>

    <connection from="-1086720715#1" to="1086720716" fromLane="0" toLane="0"/>
    <connection from="-1086720715#1" to="-1086720715#0" fromLane="0" toLane="0"/>
    <connection from="-1086720715#1" to="1086720715#1" fromLane="0" toLane="0"/>

    <connection from="-1086720716" to="-1086720715#0" fromLane="0" toLane="0"/>
    <connection from="-1086720716" to="1086720715#1" fromLane="0" toLane="0"/>
    <connection from="-1086720716" to="1086720716" fromLane="0" toLane="0"/>

    <connection from="-1086720717" to="83423765#2" fromLane="0" toLane="0"/>
    <connection from="-1086720717" to="-83423765#1" fromLane="0" toLane="0"/>
    <connection from="-1086720717" to="1086720717" fromLane="0" toLane="0"/>

    <connection from="-1086720719" to="27894307#1" fromLane="0" toLane="0"/>
    <connection from="-1086720719" to="-27894307#0" fromLane="0" toLane="0"/>
    <connection from="-1086720719" to="1086720719" fromLane="0" toLane="0"/>

    <connection from="-1086720721" to="38509431#4" fromLane="0" toLane="0"/>
    <connection from="-1086720721" to="-38509431#3" fromLane="0" toLane="0"/>
    <connection from="-1086720721" to="1086720721" fromLane="0" toLane="0"/>

    <connection from="-1086720723" to="38456113#1" fromLane="0" toLane="0"/>
    <connection from="-1086720723" to="1086720723" fromLane="0" toLane="0"/>

    <connection from="-1086720724#0" to="31730118#1" fromLane="0" toLane="0"/>
    <connection from="-1086720724#0" to="-31730118#0" fromLane="0" toLane="0"/>
    <connection from="-1086720724#0" to="1086720724#0" fromLane="0" toLane="0"/>

    <connection from="-1086720724#1" to="-1086720726" fromLane="0" toLane="0"/>
    <connection from="-1086720724#1" to="-1086720724#0" fromLane="0" toLane="0"/>
    <connection from="-1086720724#1" to="1086720724#1" fromLane="0" toLane="0"/>

    <connection from="-1086720724#2" to="-1086720725" fromLane="0" toLane="0"/>
    <connection from="-1086720724#2" to="-1086720724#1" fromLane="0" toLane="0"/>
    <connection from="-1086720724#2" to="1086720724#2" fromLane="0" toLane="0"/>

    <connection from="-1086720725" to="1086720725" fromLane="0" toLane="0"/>

    <connection from="-1086720726" to="1086720726" fromLane="0" toLane="0"/>

    <connection from="-1086720727" to="316190191#1" fromLane="0" toLane="0"/>
    <connection from="-1086720727" to="1086720727" fromLane="0" toLane="0"/>

    <connection from="-1086720728" to="316190191#2" fromLane="0" toLane="0"/>
    <connection from="-1086720728" to="-1173581997" fromLane="0" toLane="0"/>
    <connection from="-1086720728" to="1086720728" fromLane="0" toLane="0"/>

    <connection from="-1086720729" to="1067475887#1" fromLane="0" toLane="0"/>
    <connection from="-1086720729" to="1086720729" fromLane="0" toLane="0"/>

    <connection from="-1087480153#0" to="-892069337#1" fromLane="0" toLane="0"/>
    <connection from="-1087480153#0" to="892069337#2" fromLane="0" toLane="0"/>
    <connection from="-1087480153#0" to="1087480153#0" fromLane="0" toLane="0"/>

    <connection from="-1087480153#1" to="-665106335#2" fromLane="0" toLane="0"/>
    <connection from="-1087480153#1" to="-1087480153#0" fromLane="0" toLane="0"/>
    <connection from="-1087480153#1" to="665106335#3" fromLane="0" toLane="0"/>
    <connection from="-1087480153#1" to="1087480153#1" fromLane="0" toLane="0"/>

    <connection from="-1087480153#2" to="665106335#2" fromLane="0" toLane="0"/>
    <connection from="-1087480153#2" to="-1087480153#1" fromLane="0" toLane="0"/>
    <connection from="-1087480153#2" to="-665106335#1" fromLane="0" toLane="0"/>
    <connection from="-1087480153#2" to="1087480153#2" fromLane="0" toLane="0"/>

    <connection from="-1097203750" to="565001706#0" fromLane="0" toLane="0"/>
    <connection from="-1097203750" to="-83824181#2" fromLane="0" toLane="0"/>
    <connection from="-1097203750" to="-1097203751" fromLane="0" toLane="0"/>

    <connection from="-1097203751" to="537839684#0" fromLane="0" toLane="0"/>
    <connection from="-1097203751" to="-1097203752" fromLane="0" toLane="0"/>
    <connection from="-1097203751" to="1097203751" fromLane="0" toLane="0"/>

    <connection from="-1097203752" to="28755100#1" fromLane="0" toLane="0"/>
    <connection from="-1097203752" to="-28755100#0" fromLane="0" toLane="0"/>
    <connection from="-1097203752" to="1097203752" fromLane="0" toLane="0"/>

    <connection from="-1097203755" to="-537839684#1" fromLane="0" toLane="0"/>
    <connection from="-1097203755" to="-564995752" fromLane="0" toLane="0"/>

    <connection from="-1097203756" to="-123230354#6" fromLane="0" toLane="0"/>
    <connection from="-1097203756" to="-564995278" fromLane="0" toLane="0"/>
    <connection from="-1097203756" to="1097203756" fromLane="0" toLane="0"/>

    <connection from="-1097203757" to="-665106335#3" fromLane="0" toLane="0"/>
    <connection from="-1097203757" to="-402448976#1" fromLane="0" toLane="0"/>
    <connection from="-1097203757" to="1097203757" fromLane="0" toLane="0"/>

    <connection from="-1097203758" to="-402448994" fromLane="0" toLane="0"/>

    <connection from="-1098303712" to="-1098303713" fromLane="0" toLane="0"/>

    <connection from="-1098303713" to="-38455757#1" fromLane="0" toLane="0"/>

    <connection from="-1098303715" to="-211025659" fromLane="0" toLane="0"/>
    <connection from="-1098303715" to="1098303715" fromLane="0" toLane="0"/>

    <connection from="-1098303716" to="-316449806#2" fromLane="0" toLane="0"/>
    <connection from="-1098303716" to="83423770" fromLane="0" toLane="0"/>

    <connection from="-1098303718" to="182599550" fromLane="0" toLane="0"/>
    <connection from="-1098303718" to="-627326878" fromLane="0" toLane="0"/>
    <connection from="-1098303718" to="1098303718" fromLane="0" toLane="0"/>

    <connection from="-1098303720" to="83863044#0" fromLane="0" toLane="0"/>
    <connection from="-1098303720" to="-145480121#3" fromLane="0" toLane="0"/>
    <connection from="-1098303720" to="1098303720" fromLane="0" toLane="0"/>

    <connection from="-1101781120" to="34223591#0" fromLane="0" toLane="0"/>
    <connection from="-1101781120" to="-1101781121#2" fromLane="0" toLane="0"/>
    <connection from="-1101781120" to="-1101781121#2" fromLane="1" toLane="1"/>

    <connection from="-1101781121#0" to="-1101781123#1" fromLane="0" toLane="0"/>
    <connection from="-1101781121#0" to="-1101781123#1" fromLane="1" toLane="1"/>

    <connection from="-1101781121#1" to="-1101781121#0" fromLane="0" toLane="0"/>
    <connection from="-1101781121#1" to="-1101781121#0" fromLane="1" toLane="1"/>

    <connection from="-1101781121#2" to="-1101781121#1" fromLane="0" toLane="0"/>
    <connection from="-1101781121#2" to="-1101781121#1" fromLane="1" toLane="1"/>

    <connection from="-1101781123#1" to="-1101781124#1" fromLane="0" toLane="0"/>
    <connection from="-1101781123#1" to="-1101781124#1" fromLane="1" toLane="1"/>
    <connection from="-1101781123#1" to="83922223#0" fromLane="1" toLane="0"/>
    <connection from="-1101781123#1" to="1101781123#0" fromLane="1" toLane="1"/>

    <connection from="-1101781124#1" to="-441754135#3" fromLane="0" toLane="0"/>
    <connection from="-1101781124#1" to="-441754135#3" fromLane="1" toLane="1"/>
    <connection from="-1101781124#1" to="1101781124#0" fromLane="1" toLane="1"/>

    <connection from="-1101783586" to="-702315834" fromLane="0" toLane="0"/>
    <connection from="-1101783586" to="-702315834" fromLane="1" toLane="1"/>
    <connection from="-1101783586" to="-337741696#5" fromLane="1" toLane="0"/>
    <connection from="-1101783586" to="1101783586" fromLane="1" toLane="1"/>

    <connection from="-1101783587" to="83894381#0" fromLane="0" toLane="0"/>
    <connection from="-1101783587" to="-702312304" fromLane="0" toLane="0"/>
    <connection from="-1101783587" to="1101783587" fromLane="0" toLane="0"/>

    <connection from="-1101783589#0" to="1101783589#0" fromLane="0" toLane="0"/>

    <connection from="-1101783589#1" to="-83664952" fromLane="0" toLane="0"/>
    <connection from="-1101783589#1" to="-1101783589#0" fromLane="0" toLane="0"/>
    <connection from="-1101783589#1" to="1101783589#1" fromLane="0" toLane="0"/>

    <connection from="-1101783590#0" to="27058768#4" fromLane="0" toLane="0"/>
    <connection from="-1101783590#0" to="-27058768#3" fromLane="0" toLane="1"/>
    <connection from="-1101783590#0" to="1101783590#0" fromLane="0" toLane="0"/>

    <connection from="-1101783590#1" to="83664952" fromLane="0" toLane="0"/>
    <connection from="-1101783590#1" to="-1101783590#0" fromLane="0" toLane="0"/>
    <connection from="-1101783590#1" to="1101783590#1" fromLane="0" toLane="0"/>

    <connection from="-1101783591" to="207654865#0" fromLane="0" toLane="0"/>
    <connection from="-1101783591" to="-207654871" fromLane="0" toLane="0"/>
    <connection from="-1101783591" to="1101783591" fromLane="0" toLane="0"/>

    <connection from="-1101783592" to="1101783593" fromLane="0" toLane="0"/>
    <connection from="-1101783592" to="-207654865#1" fromLane="0" toLane="0"/>
    <connection from="-1101783592" to="1101783592" fromLane="0" toLane="0"/>

    <connection from="-1101783593" to="-207654865#1" fromLane="0" toLane="0"/>
    <connection from="-1101783593" to="1101783592" fromLane="0" toLane="0"/>
    <connection from="-1101783593" to="1101783593" fromLane="0" toLane="0"/>

    <connection from="-1101783594" to="1101783595#0" fromLane="0" toLane="0"/>
    <connection from="-1101783594" to="-211025609" fromLane="0" toLane="0"/>
    <connection from="-1101783594" to="-211025609" fromLane="1" toLane="1"/>

    <connection from="-1101783596" to="1101783595#1" fromLane="0" toLane="0"/>