<?xml version="1.0" encoding="UTF-8"?>

<!-- generated on 2025-04-04 16:25:17 by Eclipse SUMO netconvert Version 1.19.0
<configuration xmlns:xsi="http://www.w3.org/2001/XMLSchema-instance" xsi:noNamespaceSchemaLocation="http://sumo.dlr.de/xsd/netconvertConfiguration.xsd">

    <input>
        <sumo-net-file value="bussy_saint_georges/bussy_saint_georges.net.xml"/>
    </input>

    <output>
        <plain-output-prefix value="bussy_saint_georges/bussy_saint_georges"/>
    </output>

    <processing>
        <geometry.min-radius.fix.railways value="false"/>
        <geometry.max-grade.fix value="false"/>
        <offset.disable-normalization value="true"/>
        <lefthand value="0"/>
    </processing>

    <tls_building>
        <tls.ignore-internal-junction-jam value="1"/>
    </tls_building>

    <junctions>
        <no-turnarounds value="true"/>
        <junctions.corner-detail value="5"/>
        <junctions.limit-turn-speed value="5.50"/>
        <rectangular-lane-cut value="0"/>
    </junctions>

    <pedestrian>
        <walkingareas value="0"/>
    </pedestrian>

</configuration>
-->

<nodes version="1.16" xmlns:xsi="http://www.w3.org/2001/XMLSchema-instance" xsi:noNamespaceSchemaLocation="http://sumo.dlr.de/xsd/nodes_file.xsd">
    <location netOffset="-475523.28,-5407873.09" convBoundary="0.00,0.00,7749.58,4293.37" origBoundary="2.666475,48.823452,2.771971,48.862127" projParameter="+proj=utm +zone=31 +ellps=WGS84 +datum=WGS84 +units=m +no_defs"/>

    <node id="10094829066" x="4145.35" y="1295.82" type="right_before_left"/>
    <node id="10094829069" x="4351.78" y="1333.32" type="dead_end"/>
    <node id="10094829070" x="4683.96" y="1382.81" type="dead_end"/>
    <node id="10094829071" x="4198.12" y="1305.58" type="priority"/>
    <node id="10094829075" x="4769.78" y="1408.46" type="priority"/>
    <node id="10094829076" x="4351.14" y="1336.12" type="priority"/>
    <node id="10094829082" x="4472.87" y="1358.56" type="priority"/>
    <node id="10094829085" x="4683.80" y="1386.61" type="priority"/>
    <node id="10095310669" x="5403.46" y="2163.55" type="priority"/>
    <node id="10095310680" x="5232.69" y="2236.02" type="dead_end"/>
    <node id="10095397807" x="4079.27" y="1525.98" type="priority"/>
    <node id="10095397808" x="4081.03" y="1516.74" type="priority"/>
    <node id="10095470825" x="4571.07" y="1245.91" type="priority"/>
    <node id="10095470831" x="4561.23" y="1346.54" type="priority"/>
    <node id="10095470843" x="4693.67" y="1326.88" type="dead_end"/>
    <node id="10102793370" x="2922.44" y="1540.74" type="priority"/>
    <node id="10102793371" x="2919.57" y="1556.28" type="priority"/>
    <node id="10102793374" x="2884.18" y="1585.58" type="priority"/>
    <node id="10102829834" x="2884.85" y="1381.54" type="priority"/>
    <node id="10103022271" x="3029.23" y="1096.68" type="dead_end"/>
    <node id="10103022273" x="3111.81" y="1110.41" type="dead_end"/>
    <node id="10103022276" x="3116.09" y="1107.90" type="priority"/>
    <node id="10103022279" x="3135.61" y="1118.58" type="priority"/>
    <node id="10103022286" x="3231.90" y="1131.49" type="priority"/>
    <node id="10103022288" x="3234.84" y="1111.62" type="right_before_left"/>
    <node id="10265645604" x="3572.42" y="2033.88" type="priority"/>
    <node id="10267846856" x="2857.68" y="2122.81" type="priority"/>
    <node id="10267846859" x="2855.83" y="2219.46" type="priority"/>
    <node id="10267846862" x="2851.31" y="2335.19" type="right_before_left"/>
    <node id="10269289715" x="3035.09" y="1593.58" type="traffic_light" tl="joinedS_10269289715_276080655_7289280594_7289390436_#2more" controlledInner="-286595747#2 -710871898#0 286595747#2 49247537#1 710871898#0"/>
    <node id="10271132830" x="3301.81" y="1634.56" type="traffic_light" tl="joinedS_10271132830_1759258972_1759258989_1759259006_#2more" controlledInner="-296087333#5 -560395151#0 296087333#5 560395151#0"/>
    <node id="1038287442" x="5534.03" y="3421.33" type="right_before_left"/>
    <node id="1038287443" x="5422.98" y="3574.24" type="priority"/>
    <node id="1038287486" x="5388.80" y="3571.44" type="priority"/>
    <node id="1038287513" x="5396.23" y="3651.20" type="priority"/>
    <node id="1038287527" x="5552.30" y="3393.01" type="priority"/>
    <node id="1039071148" x="3560.59" y="3191.94" type="priority"/>
    <node id="1039071162" x="3801.48" y="3551.15" type="priority"/>
    <node id="1039071167" x="3548.11" y="3204.17" type="priority"/>
    <node id="1039071176" x="3620.41" y="3388.19" type="priority"/>
    <node id="1039071213" x="3783.37" y="3276.65" type="priority"/>
    <node id="1039071241" x="4207.12" y="3479.31" type="priority"/>
    <node id="1039071269" x="4049.63" y="3472.12" type="priority"/>
    <node id="1039071277" x="3905.82" y="3678.36" type="priority"/>
    <node id="1039071285" x="3473.01" y="3166.00" type="priority"/>
    <node id="1039071325" x="3829.91" y="3560.53" type="priority"/>
    <node id="1039071327" x="3971.89" y="3327.22" type="priority"/>
    <node id="1039071330" x="3685.12" y="3380.40" type="priority"/>
    <node id="1039071381" x="3634.94" y="3597.65" type="priority"/>
    <node id="1039071400" x="3413.20" y="3116.39" type="priority"/>
    <node id="1039071408" x="3894.06" y="3636.32" type="priority"/>
    <node id="1039071418" x="3695.94" y="3447.84" type="priority"/>
    <node id="1039071433" x="4049.01" y="3537.76" type="priority"/>
    <node id="1039071439" x="3619.35" y="3439.48" type="priority"/>
    <node id="1039071449" x="4384.77" y="3525.17" type="priority"/>
    <node id="1039071505" x="4002.57" y="3550.87" type="priority"/>
    <node id="1039071525" x="3559.76" y="3397.71" type="priority"/>
    <node id="1039071613" x="4301.03" y="3505.73" type="priority"/>
    <node id="1039071618" x="3963.58" y="3486.94" type="priority"/>
    <node id="1039071722" x="3597.00" y="3229.71" type="priority"/>
    <node id="1039071749" x="3440.17" y="3251.13" type="priority"/>
    <node id="1039071752" x="4354.61" y="3453.56" type="priority"/>
    <node id="1039071763" x="3830.58" y="3390.66" type="priority"/>
    <node id="1039071803" x="4066.12" y="3579.00" type="priority"/>
    <node id="1039071836" x="3886.96" y="3492.67" type="priority"/>
    <node id="1039071851" x="3799.63" y="3426.31" type="right_before_left"/>
    <node id="1039071901" x="3690.62" y="3135.71" type="priority"/>
    <node id="1039071932" x="3547.14" y="3337.01" type="priority"/>
    <node id="1039071946" x="3357.74" y="3250.84" type="priority"/>
    <node id="1039071956" x="4365.36" y="3479.97" type="priority"/>
    <node id="1039072039" x="4133.74" y="3484.75" type="priority"/>
    <node id="1039072045" x="3722.54" y="3137.59" type="priority"/>
    <node id="1039072052" x="3943.62" y="3552.20" type="priority"/>
    <node id="1039072061" x="3702.37" y="3272.97" type="priority"/>
    <node id="1039072068" x="3713.57" y="3536.55" type="priority"/>
    <node id="1039072090" x="3825.26" y="3499.33" type="priority"/>
    <node id="1039072178" x="3532.18" y="3450.32" type="priority"/>
    <node id="1039072192" x="3763.46" y="3276.70" type="priority"/>
    <node id="1039072249" x="3476.05" y="3120.57" type="priority"/>
    <node id="1039072253" x="4019.72" y="3345.71" type="priority"/>
    <node id="1039072292" x="3701.05" y="3478.83" type="priority"/>
    <node id="1039072303" x="3636.92" y="3260.98" type="priority"/>
    <node id="1039072330" x="3665.89" y="3598.86" type="dead_end"/>
    <node id="1039072352" x="4142.63" y="3593.77" type="priority"/>
    <node id="1039072491" x="3754.01" y="3107.69" type="priority"/>
    <node id="1039072503" x="3641.86" y="3097.81" type="priority"/>
    <node id="1039072538" x="3665.02" y="3623.24" type="priority"/>
    <node id="1039072554" x="4619.00" y="3652.50" type="priority"/>
    <node id="1039072572" x="4399.10" y="3434.61" type="priority"/>
    <node id="1039072595" x="3524.76" y="3123.87" type="priority"/>
    <node id="1039072597" x="4044.45" y="3402.24" type="priority"/>
    <node id="1039072627" x="3591.50" y="3129.00" type="priority"/>
    <node id="1039351368" x="3126.96" y="3207.84" type="priority"/>
    <node id="1039351407" x="2832.11" y="3075.52" type="priority"/>
    <node id="1039351570" x="2893.78" y="3243.72" type="priority"/>
    <node id="1039351602" x="2975.87" y="3278.43" type="priority"/>
    <node id="1039351611" x="2821.47" y="3362.07" type="priority"/>
    <node id="1039351689" x="2854.13" y="3310.40" type="right_before_left"/>
    <node id="1039351691" x="3020.76" y="3088.73" type="dead_end"/>
    <node id="1039351772" x="2933.29" y="3190.49" type="priority"/>
    <node id="1039351783" x="2980.78" y="3258.28" type="priority"/>
    <node id="1039351937" x="2973.04" y="3240.67" type="priority"/>
    <node id="1039352012" x="2844.92" y="3041.09" type="priority"/>
    <node id="1039352073" x="2900.12" y="3280.17" type="priority"/>
    <node id="1039352095" x="3356.99" y="3261.23" type="priority"/>
    <node id="1039352100" x="2901.20" y="3144.60" type="priority"/>
    <node id="1039352148" x="3336.40" y="3109.45" type="dead_end"/>
    <node id="1039352163" x="3360.93" y="3218.69" type="priority"/>
    <node id="1039352194" x="2842.87" y="3250.70" type="priority"/>
    <node id="1041145023" x="2261.81" y="3490.62" type="dead_end"/>
    <node id="1041145220" x="2227.33" y="3382.19" type="dead_end"/>
    <node id="1041145223" x="2576.86" y="3505.74" type="priority"/>
    <node id="1041145398" x="2244.78" y="3305.78" type="dead_end"/>
    <node id="1041145409" x="3801.69" y="3211.90" type="priority"/>
    <node id="1041145417" x="2256.92" y="3513.11" type="priority"/>
    <node id="10579139237" x="4243.16" y="1157.44" type="priority"/>
    <node id="10579163952" x="4417.58" y="1280.17" type="dead_end"/>
    <node id="10694443813" x="5499.41" y="547.41" type="priority"/>
    <node id="10694771659" x="3359.69" y="399.32" type="priority"/>
    <node id="10694771677" x="3560.50" y="539.36" type="right_before_left"/>
    <node id="10694771696" x="3220.42" y="633.38" type="priority"/>
    <node id="10803682741" x="5166.49" y="3043.18" type="priority"/>
    <node id="10926049589" x="4459.22" y="1343.86" type="dead_end"/>
    <node id="11130297258" x="3619.99" y="1825.20" type="priority"/>
    <node id="11130297262" x="3627.89" y="1784.39" type="priority"/>
    <node id="11220621121" x="3165.96" y="1425.84" type="dead_end"/>
    <node id="11220621122" x="3166.55" y="1438.61" type="right_before_left"/>
    <node id="11220621124" x="3085.66" y="1424.93" type="right_before_left"/>
    <node id="11220621126" x="3081.30" y="1420.16" type="right_before_left"/>
    <node id="11220621128" x="3080.58" y="1424.03" type="priority"/>
    <node id="11220657438" x="3217.20" y="1447.95" type="right_before_left"/>
    <node id="11220762168" x="3322.07" y="1461.29" type="priority"/>
    <node id="11221260787" x="3417.45" y="1449.81" type="dead_end"/>
    <node id="11221260789" x="3102.79" y="1470.33" type="priority"/>
    <node id="11221295103" x="3079.14" y="1431.63" type="priority"/>
    <node id="11222555411" x="5247.66" y="2045.61" type="dead_end"/>
    <node id="1125506594" x="3190.17" y="3409.08" type="priority"/>
    <node id="1125506690" x="4687.69" y="3453.07" type="right_before_left"/>
    <node id="1125506693" x="4682.54" y="3441.56" type="priority"/>
    <node id="1125506722" x="4899.56" y="2954.02" type="priority"/>
    <node id="1125506773" x="3792.27" y="3231.35" type="priority"/>
    <node id="1125506781" x="3761.54" y="3238.33" type="priority"/>
    <node id="11634958983" x="3061.69" y="1349.84" type="right_before_left"/>
    <node id="11634958985" x="3011.57" y="1341.93" type="priority"/>
    <node id="11805897266" x="3568.15" y="2213.69" type="priority"/>
    <node id="11876724271" x="3826.64" y="3144.25" type="right_before_left"/>
    <node id="1188934698" x="3255.36" y="1832.54" type="priority"/>
    <node id="1188934700" x="2936.43" y="1709.16" type="priority"/>
    <node id="1194795165" x="3836.14" y="1235.44" type="priority"/>
    <node id="1194795166" x="3878.80" y="1012.28" type="priority"/>
    <node id="1194795170" x="3863.68" y="1108.58" type="priority"/>
    <node id="11966243318" x="4936.88" y="3031.15" type="priority"/>
    <node id="11966243319" x="5221.78" y="3115.88" type="priority"/>
    <node id="1200542547" x="3203.08" y="1215.56" type="priority"/>
    <node id="1200542550" x="3437.90" y="1260.17" type="priority"/>
    <node id="1200542552" x="3360.61" y="1243.36" type="priority"/>
    <node id="12091953664" x="4279.40" y="2214.29" type="priority"/>
    <node id="12091953666" x="4302.88" y="2218.52" type="priority"/>
    <node id="12091953667" x="4305.50" y="2203.82" type="priority"/>
    <node id="12110754025" x="3631.25" y="1698.90" type="dead_end"/>
    <node id="12110754026" x="3600.63" y="1692.20" type="dead_end"/>
    <node id="12110754027" x="3600.38" y="1693.60" type="dead_end"/>
    <node id="12110754028" x="3618.91" y="1696.78" type="dead_end"/>
    <node id="12110754038" x="3616.76" y="1696.41" type="traffic_light" tl="joinedS_12110754038_5522501101_5522504811_5522504812_#4more" controlledInner="144912048#7"/>
    <node id="12110754039" x="3601.02" y="1689.99" type="dead_end"/>
    <node id="12110754042" x="3389.14" y="1655.05" type="priority"/>
    <node id="12110754043" x="3407.34" y="1658.21" type="priority"/>
    <node id="12110754044" x="3425.22" y="1661.31" type="priority"/>
    <node id="12110754045" x="3361.53" y="1646.70" type="dead_end"/>
    <node id="12110754047" x="3361.78" y="1645.23" type="priority"/>
    <node id="12110754048" x="3361.01" y="1649.31" type="dead_end"/>
    <node id="12110754052" x="3301.52" y="1636.11" type="dead_end"/>
    <node id="12110754054" x="3310.06" y="1623.05" type="dead_end"/>
    <node id="12110754056" x="3363.13" y="1637.44" type="dead_end"/>
    <node id="12110754060" x="3782.11" y="1724.27" type="dead_end"/>
    <node id="12110754061" x="3782.42" y="1722.18" type="dead_end"/>
    <node id="12110754079" x="3936.60" y="1750.87" type="priority"/>
    <node id="12110754080" x="3938.16" y="1741.74" type="dead_end"/>
    <node id="12110800497" x="3050.23" y="1582.38" type="dead_end"/>
    <node id="12110800498" x="3179.93" y="1604.78" type="dead_end"/>
    <node id="12110800500" x="3179.00" y="1616.94" type="dead_end"/>
    <node id="12110800507" x="3211.90" y="1608.38" type="dead_end"/>
    <node id="12110800508" x="3214.20" y="1596.29" type="dead_end"/>
    <node id="12110800513" x="3179.78" y="1612.75" type="priority"/>
    <node id="12110800515" x="3049.42" y="1586.94" type="dead_end"/>
    <node id="12110800516" x="3052.76" y="1568.03" type="dead_end"/>
    <node id="12110800518" x="3052.87" y="1562.57" type="priority"/>
    <node id="12110800519" x="3049.00" y="1589.35" type="traffic_light" tl="12110800519"/>
    <node id="12110800558" x="3080.02" y="1587.56" type="dead_end"/>
    <node id="12110800563" x="3084.51" y="1563.42" type="dead_end"/>
    <node id="12110800565" x="3048.18" y="1594.00" type="dead_end"/>
    <node id="12110800566" x="3077.88" y="1599.21" type="dead_end"/>
    <node id="12110964038" x="2918.67" y="1558.12" type="right_before_left"/>
    <node id="12110964046" x="3010.53" y="1694.69" type="dead_end"/>
    <node id="12110964048" x="3028.97" y="1592.57" type="dead_end"/>
    <node id="12110964050" x="3040.60" y="1594.46" type="dead_end"/>
    <node id="12110964054" x="3036.18" y="1657.49" type="dead_end"/>
    <node id="12110964055" x="3034.78" y="1664.93" type="dead_end"/>
    <node id="12110964058" x="3031.25" y="1649.76" type="dead_end"/>
    <node id="12110964059" x="3019.15" y="1647.69" type="dead_end"/>
    <node id="12110964066" x="3008.97" y="1692.72" type="priority"/>
    <node id="12110964067" x="3035.22" y="1662.60" type="priority"/>
    <node id="12110964068" x="3024.47" y="1648.61" type="priority"/>
    <node id="12110964070" x="3068.19" y="1673.18" type="dead_end"/>
    <node id="12111477041" x="3301.07" y="1638.48" type="dead_end"/>
    <node id="12111477043" x="3294.00" y="1641.25" type="dead_end"/>
    <node id="12111477046" x="3302.34" y="1594.84" type="dead_end"/>
    <node id="12111477048" x="3279.22" y="1620.69" type="dead_end"/>
    <node id="12111477049" x="3281.91" y="1605.96" type="dead_end"/>
    <node id="12111477053" x="3292.10" y="1593.01" type="dead_end"/>
    <node id="12111477054" x="3279.79" y="1617.57" type="dead_end"/>
    <node id="12111477064" x="3214.59" y="1594.24" type="dead_end"/>
    <node id="12111477069" x="3208.65" y="1571.69" type="dead_end"/>
    <node id="12111477084" x="3085.89" y="1556.14" type="dead_end"/>
    <node id="12111477088" x="3157.24" y="1568.73" type="dead_end"/>
    <node id="12111477092" x="3053.82" y="1550.48" type="dead_end"/>
    <node id="12111477097" x="3022.99" y="1576.40" type="dead_end"/>
    <node id="12111477100" x="3032.18" y="1545.83" type="dead_end"/>
    <node id="12111509603" x="3179.97" y="1599.54" type="dead_end"/>
    <node id="12111509606" x="3185.19" y="1573.66" type="dead_end"/>
    <node id="12111509608" x="3184.43" y="1578.32" type="priority"/>
    <node id="12111509623" x="3305.12" y="1516.98" type="dead_end"/>
    <node id="12111509624" x="3315.84" y="1519.00" type="dead_end"/>
    <node id="12111509625" x="3304.56" y="1520.24" type="dead_end"/>
    <node id="12111509626" x="3230.90" y="1500.02" type="dead_end"/>
    <node id="12111509627" x="3295.95" y="1511.38" type="dead_end"/>
    <node id="12111509628" x="3297.69" y="1503.10" type="dead_end"/>
    <node id="12111509629" x="3232.45" y="1491.68" type="dead_end"/>
    <node id="12111509634" x="3027.97" y="1558.15" type="priority"/>
    <node id="12111509635" x="3229.08" y="1630.85" type="dead_end"/>
    <node id="12111509636" x="3229.53" y="1628.40" type="dead_end"/>
    <node id="12111509637" x="3253.40" y="1632.62" type="dead_end"/>
    <node id="12111509638" x="3252.92" y="1635.24" type="dead_end"/>
    <node id="12111509639" x="3232.48" y="1612.15" type="dead_end"/>
    <node id="12111509640" x="3256.42" y="1616.52" type="dead_end"/>
    <node id="12111509641" x="3232.21" y="1613.66" type="dead_end"/>
    <node id="12111509643" x="3247.15" y="1599.91" type="dead_end"/>
    <node id="12111509644" x="3244.46" y="1614.34" type="dead_end"/>
    <node id="12111509647" x="3204.37" y="1692.53" type="priority"/>
    <node id="12111509648" x="3254.76" y="1701.30" type="priority"/>
    <node id="12111509649" x="3182.78" y="1585.60" type="priority"/>
    <node id="12111509650" x="3069.31" y="1422.02" type="priority"/>
    <node id="12112315421" x="3656.39" y="1641.30" type="priority"/>
    <node id="12112315422" x="3657.71" y="1634.34" type="priority"/>
    <node id="12258749247" x="5158.98" y="3056.48" type="right_before_left"/>
    <node id="12331132151" x="4189.45" y="809.77" type="dead_end"/>
    <node id="12331132152" x="4175.98" y="884.63" type="dead_end"/>
    <node id="12331132153" x="4169.97" y="917.54" type="priority"/>
    <node id="12331132155" x="4192.27" y="907.15" type="dead_end"/>
    <node id="12331132163" x="4180.74" y="971.17" type="dead_end"/>
    <node id="12331132164" x="4197.84" y="874.78" type="priority"/>
    <node id="12331132168" x="4253.59" y="823.63" type="priority"/>
    <node id="12331132169" x="4301.69" y="832.38" type="priority"/>
    <node id="12331132170" x="4548.68" y="876.61" type="priority"/>
    <node id="12331132171" x="4611.55" y="887.18" type="priority"/>
    <node id="12331132172" x="4737.49" y="986.41" type="priority"/>
    <node id="12331132173" x="4748.69" y="919.00" type="dead_end"/>
    <node id="12331132174" x="4743.29" y="910.74" type="dead_end"/>
    <node id="12331132175" x="4746.66" y="890.23" type="dead_end"/>
    <node id="12331132176" x="4201.55" y="794.35" type="priority"/>
    <node id="12331132177" x="4257.40" y="804.27" type="priority"/>
    <node id="12331132178" x="4370.38" y="823.97" type="priority"/>
    <node id="12331132179" x="4447.88" y="838.88" type="priority"/>
    <node id="12331132181" x="4674.65" y="878.22" type="priority"/>
    <node id="12331132185" x="4782.67" y="897.64" type="dead_end"/>
    <node id="12331132186" x="4861.87" y="910.01" type="priority"/>
    <node id="12331159022" x="2025.23" y="1190.86" type="priority"/>
    <node id="12331159028" x="2939.57" y="944.23" type="priority"/>
    <node id="12331159031" x="2932.39" y="944.16" type="right_before_left"/>
    <node id="12331159038" x="4758.68" y="920.61" type="priority"/>
    <node id="12331159039" x="4744.98" y="900.91" type="priority"/>
    <node id="12331159040" x="4764.13" y="888.55" type="priority"/>
    <node id="12331159041" x="4780.53" y="907.17" type="priority"/>
    <node id="12331159049" x="4834.32" y="752.90" type="priority"/>
    <node id="12331159055" x="4864.91" y="891.55" type="right_before_left"/>
    <node id="12331159057" x="4906.24" y="1110.60" type="priority" fringe="inner">
        <param key="buffer_stop" value="true"/>
    </node>
    <node id="12331159062" x="4762.84" y="953.70" type="dead_end" fringe="inner">
        <param key="buffer_stop" value="true"/>
    </node>
    <node id="12331159063" x="4768.38" y="921.87" type="dead_end"/>
    <node id="12331159065" x="4778.79" y="916.79" type="dead_end"/>
    <node id="12331159066" x="4885.70" y="935.58" type="priority"/>
    <node id="12331159068" x="5008.80" y="957.69" type="dead_end"/>
    <node id="12331159070" x="4994.13" y="1081.74" type="priority"/>
    <node id="12331159071" x="4952.97" y="948.02" type="dead_end"/>
    <node id="12331159072" x="4955.33" y="938.26" type="priority"/>
    <node id="12331159073" x="4957.40" y="928.37" type="dead_end"/>
    <node id="12331159074" x="4910.77" y="918.25" type="priority"/>
    <node id="12331159075" x="5012.30" y="938.34" type="dead_end"/>
    <node id="12331159076" x="5034.04" y="858.48" type="right_before_left"/>
    <node id="12331159077" x="5014.69" y="966.05" type="dead_end"/>
    <node id="12331159078" x="5020.36" y="933.12" type="dead_end"/>
    <node id="12331159079" x="5054.56" y="856.45" type="dead_end"/>
    <node id="12331159080" x="5040.00" y="936.36" type="dead_end"/>
    <node id="12331159081" x="5045.61" y="944.11" type="dead_end"/>
    <node id="12331159083" x="5246.20" y="979.61" type="priority"/>
    <node id="12331159086" x="5408.86" y="1008.03" type="dead_end"/>
    <node id="12331159089" x="5407.61" y="1028.34" type="dead_end"/>
    <node id="12331159090" x="5041.55" y="963.49" type="dead_end"/>
    <node id="12331159091" x="5033.55" y="969.21" type="dead_end"/>
    <node id="12331159092" x="5060.93" y="1031.89" type="priority" fringe="inner">
        <param key="buffer_stop" value="true"/>
    </node>
    <node id="12331159093" x="5050.29" y="1029.66" type="right_before_left"/>
    <node id="12331159094" x="5057.98" y="1047.02" type="priority" fringe="inner">
        <param key="buffer_stop" value="true"/>
    </node>
    <node id="12331159095" x="5047.53" y="1044.90" type="right_before_left"/>
    <node id="12331159096" x="5054.98" y="1061.65" type="priority" fringe="inner">
        <param key="buffer_stop" value="true"/>
    </node>
    <node id="12331159102" x="5158.26" y="1005.04" type="right_before_left"/>
    <node id="12331159119" x="5052.16" y="1129.18" type="priority"/>
    <node id="12331159125" x="5125.09" y="1185.95" type="priority"/>
    <node id="12331159126" x="5024.45" y="967.69" type="priority"/>
    <node id="12331159127" x="5030.28" y="934.77" type="priority"/>
    <node id="12331159128" x="5010.69" y="948.14" type="priority"/>
    <node id="12331159129" x="5043.78" y="954.04" type="priority"/>
    <node id="12331159131" x="5408.16" y="1018.97" type="priority"/>
    <node id="12331159136" x="5528.84" y="1154.32" type="dead_end"/>
    <node id="12331159139" x="5518.69" y="1149.04" type="dead_end"/>
    <node id="12331159140" x="5519.60" y="1143.61" type="dead_end" fringe="inner">
        <param key="buffer_stop" value="true"/>
    </node>
    <node id="12331159141" x="5517.73" y="1154.80" type="dead_end"/>
    <node id="12331159151" x="5576.85" y="915.36" type="dead_end"/>
    <node id="12331159152" x="5575.47" y="923.43" type="dead_end"/>
    <node id="12331159153" x="5559.59" y="920.56" type="dead_end"/>
    <node id="12331159155" x="5558.49" y="927.09" type="dead_end" fringe="inner">
        <param key="buffer_stop" value="true"/>
    </node>
    <node id="12331159156" x="5560.02" y="1008.67" type="dead_end"/>
    <node id="12331159157" x="5544.13" y="1005.63" type="dead_end"/>
    <node id="12331159158" x="5545.20" y="999.66" type="dead_end" fringe="inner">
        <param key="buffer_stop" value="true"/>
    </node>
    <node id="12331159159" x="5542.98" y="1012.08" type="dead_end" fringe="inner">
        <param key="buffer_stop" value="true"/>
    </node>
    <node id="12331159160" x="5480.17" y="1035.12" type="dead_end"/>
    <node id="12331159171" x="5495.94" y="1030.84" type="dead_end"/>
    <node id="12331159176" x="5480.51" y="1006.13" type="dead_end"/>
    <node id="12331159177" x="5493.82" y="1012.39" type="dead_end"/>
    <node id="12331159178" x="5470.74" y="1012.28" type="dead_end" fringe="inner">
        <param key="buffer_stop" value="true"/>
    </node>
    <node id="12331159181" x="5485.65" y="1011.05" type="dead_end"/>
    <node id="12331159184" x="5466.67" y="1003.56" type="dead_end"/>
    <node id="12331159185" x="5523.42" y="1123.05" type="dead_end" fringe="inner">
        <param key="buffer_stop" value="true"/>
    </node>
    <node id="12331159186" x="5540.70" y="1116.13" type="dead_end"/>
    <node id="12331159187" x="5525.21" y="1112.92" type="dead_end"/>
    <node id="12331159188" x="5519.82" y="1105.98" type="dead_end" fringe="inner">
        <param key="buffer_stop" value="true"/>
    </node>
    <node id="12331159189" x="5528.53" y="1088.58" type="priority"/>
    <node id="12331159190" x="5519.62" y="1134.20" type="priority"/>
    <node id="12331159191" x="5514.80" y="1175.72" type="priority"/>
    <node id="12331159192" x="5498.33" y="1172.61" type="right_before_left"/>
    <node id="12331159201" x="5562.48" y="899.75" type="priority"/>
    <node id="12331159202" x="5548.35" y="897.44" type="right_before_left"/>
    <node id="12331159203" x="5556.61" y="938.88" type="priority"/>
    <node id="12331159204" x="5541.24" y="936.05" type="right_before_left"/>
    <node id="12331159205" x="5547.32" y="988.08" type="priority"/>
    <node id="12331159206" x="5532.23" y="985.52" type="right_before_left"/>
    <node id="12331159207" x="5544.92" y="1019.74" type="priority"/>
    <node id="12331159208" x="5553.60" y="951.70" type="dead_end" fringe="inner">
        <param key="buffer_stop" value="true"/>
    </node>
    <node id="12331159209" x="5563.35" y="962.82" type="dead_end"/>
    <node id="12331159211" x="5552.53" y="957.39" type="dead_end"/>
    <node id="12331159213" x="5536.80" y="960.19" type="right_before_left"/>
    <node id="12331159221" x="5526.65" y="1016.46" type="right_before_left"/>
    <node id="12331159243" x="5505.69" y="1131.10" type="right_before_left"/>
    <node id="12331159244" x="5517.47" y="1080.12" type="right_before_left"/>
    <node id="12331159249" x="5483.25" y="1044.62" type="right_before_left"/>
    <node id="12331159251" x="5448.68" y="1039.49" type="priority"/>
    <node id="12331159256" x="5504.40" y="931.38" type="right_before_left"/>
    <node id="12331159257" x="5519.50" y="933.99" type="right_before_left"/>
    <node id="12331159258" x="5487.77" y="928.50" type="right_before_left"/>
    <node id="12331159259" x="5481.04" y="1002.97" type="right_before_left"/>
    <node id="12331159266" x="5517.44" y="858.01" type="right_before_left"/>
    <node id="12331159272" x="5439.98" y="1086.32" type="priority"/>
    <node id="12331159273" x="5467.66" y="1091.83" type="priority"/>
    <node id="12331159278" x="5459.00" y="1089.89" type="right_before_left"/>
    <node id="12331159279" x="5430.10" y="1084.39" type="priority"/>
    <node id="12331397443" x="2689.47" y="447.26" type="dead_end"/>
    <node id="12331416790" x="3018.59" y="607.95" type="priority"/>
    <node id="12331416845" x="2811.91" y="510.51" type="right_before_left"/>
    <node id="12331416846" x="2799.26" y="522.13" type="right_before_left"/>
    <node id="12331416859" x="3097.14" y="565.67" type="right_before_left"/>
    <node id="12331416862" x="3123.51" y="630.76" type="priority"/>
    <node id="12331416865" x="3129.18" y="569.05" type="priority"/>
    <node id="12331416869" x="3260.44" y="459.21" type="right_before_left"/>
    <node id="12331416871" x="3383.45" y="406.93" type="priority"/>
    <node id="12335502983" x="3175.73" y="3098.08" type="dead_end"/>
    <node id="12339140572" x="2487.56" y="2309.22" type="priority"/>
    <node id="12344650101" x="4863.89" y="1867.77" type="priority"/>
    <node id="12344650103" x="3004.24" y="1985.78" type="dead_end"/>
    <node id="12344650104" x="4601.08" y="2309.30" type="dead_end"/>
    <node id="12344650126" x="4811.62" y="2606.51" type="priority"/>
    <node id="12344650190" x="3483.14" y="2599.60" type="priority"/>
    <node id="12344650320" x="3067.59" y="1663.47" type="dead_end"/>
    <node id="12344650329" x="3027.89" y="1402.59" type="right_before_left"/>
    <node id="12344650330" x="3055.62" y="1407.75" type="priority"/>
    <node id="12344650331" x="3002.73" y="1397.90" type="priority"/>
    <node id="12344650332" x="3024.47" y="1421.59" type="right_before_left"/>
    <node id="12344650333" x="3052.05" y="1426.32" type="priority"/>
    <node id="12344650335" x="2998.68" y="1444.33" type="right_before_left"/>
    <node id="12344650336" x="3019.93" y="1447.95" type="right_before_left"/>
    <node id="12344650337" x="3048.31" y="1452.78" type="priority"/>
    <node id="12344650338" x="2990.75" y="1442.98" type="priority"/>
    <node id="12344650339" x="2988.60" y="1459.88" type="priority"/>