<?xml version="1.0" encoding="UTF-8"?>

<!-- generated on 2025-04-04 16:25:17 by Eclipse SUMO netconvert Version 1.19.0
<configuration xmlns:xsi="http://www.w3.org/2001/XMLSchema-instance" xsi:noNamespaceSchemaLocation="http://sumo.dlr.de/xsd/netconvertConfiguration.xsd">

    <input>
        <sumo-net-file value="bussy_saint_georges/bussy_saint_georges.net.xml"/>
    </input>

    <output>
        <plain-output-prefix value="bussy_saint_georges/bussy_saint_georges"/>
    </output>

    <processing>
        <geometry.min-radius.fix.railways value="false"/>
        <geometry.max-grade.fix value="false"/>
        <offset.disable-normalization value="true"/>
        <lefthand value="0"/>
    </processing>

    <tls_building>
        <tls.ignore-internal-junction-jam value="1"/>
    </tls_building>

    <junctions>
        <no-turnarounds value="true"/>
        <junctions.corner-detail value="5"/>
        <junctions.limit-turn-speed value="5.50"/>
        <rectangular-lane-cut value="0"/>
    </junctions>

    <pedestrian>
        <walkingareas value="0"/>
    </pedestrian>

</configuration>
-->

<tlLogics version="1.16" xmlns:xsi="http://www.w3.org/2001/XMLSchema-instance" xsi:noNamespaceSchemaLocation="http://sumo.dlr.de/xsd/tllogic_file.xsd">
    <tlLogic id="12110800519" type="static" programID="0" offset="0">
        <phase duration="82" state="G"/>
        <phase duration="3"  state="y"/>
        <phase duration="5"  state="r"/>
    </tlLogic>
    <tlLogic id="1759258987" type="static" programID="0" offset="0">
        <phase duration="82" state="GG"/>
        <phase duration="3"  state="yy"/>
        <phase duration="5"  state="rr"/>
    </tlLogic>
    <tlLogic id="1759259004" type="static" programID="0" offset="0">
        <phase duration="82" state="GG"/>
        <phase duration="3"  state="yy"/>
        <phase duration="5"  state="rr"/>
    </tlLogic>
    <tlLogic id="1759259021" type="static" programID="0" offset="0">
        <phase duration="82" state="GG"/>
        <phase duration="3"  state="yy"/>
        <phase duration="5"  state="rr"/>
    </tlLogic>
    <tlLogic id="275296602" type="static" programID="0" offset="0">
        <phase duration="42" state="rrrrGGggGGgg"/>
        <phase duration="3"  state="rrrryyyyyyyy"/>
        <phase duration="42" state="GGGgGrrrrrrr"/>
        <phase duration="3"  state="yyyyyrrrrrrr"/>
    </tlLogic>
    <tlLogic id="5522504508" type="static" programID="0" offset="0">
        <phase duration="82" state="G"/>
        <phase duration="3"  state="y"/>
        <phase duration="5"  state="r"/>
    </tlLogic>
    <tlLogic id="5527795799" type="static" programID="0" offset="0">
        <phase duration="82" state="GG"/>
        <phase duration="3"  state="yy"/>
        <phase duration="5"  state="rr"/>
    </tlLogic>
    <tlLogic id="5536149703" type="static" programID="0" offset="0">
        <phase duration="82" state="G"/>
        <phase duration="3"  state="y"/>
        <phase duration="5"  state="r"/>
    </tlLogic>
    <tlLogic id="5714953827" type="static" programID="0" offset="0">
        <phase duration="82" state="G"/>
        <phase duration="3"  state="y"/>
        <phase duration="5"  state="r"/>
    </tlLogic>
    <tlLogic id="GS_cluster_5527805967_625198978" type="static" programID="0" offset="0">
        <phase duration="42" state="rrGgGg"/>
        <phase duration="3"  state="rryyyy"/>
        <phase duration="42" state="GGrrrr"/>
        <phase duration="3"  state="yyrrrr"/>
    </tlLogic>
    <tlLogic id="cluster_10103022275_1640413805_275304009_2902746967_#5more" type="static" programID="0" offset="0">
        <phase duration="42" state="rrrrrrrrrrgggggggggggggGGgggggrrrrrrrrrrggggggggggrrrrrrrrrrggggggggggggGgGgggggggggggggggrrrrrrrrrr"/>
        <phase duration="3"  state="rrrrrrrrrryyyyyyyyyyyyyyyyyyyyrrrrrrrrrryyyyyyyyyyrrrrrrrrrryyyyyyyyyyyyyyyyyyyyyyyyyyyyyyrrrrrrrrrr"/>
        <phase duration="42" state="ggggggggggrrrrrrrrrrrrrrrrrrrrGGGgggggggrrrrrrrrrrGgggggggggrrrrrrrrrrrrrrrrrrrrrrrrrrrrrrGGGGgggggg"/>
        <phase duration="3"  state="yyyyyyyyyyrrrrrrrrrrrrrrrrrrrryyyyyyyyyyrrrrrrrrrryyyyyyyyyyrrrrrrrrrrrrrrrrrrrrrrrrrrrrrryyyyyyyyyy"/>
    </tlLogic>
    <tlLogic id="cluster_1583941335_5586192852_9790616905" type="static" programID="0" offset="0">
        <phase duration="82" state="GGgGgg"/>
        <phase duration="3"  state="yyyyyy"/>
        <phase duration="5"  state="rrrrrr"/>
    </tlLogic>
    <tlLogic id="cluster_321877751_4610106393" type="static" programID="0" offset="0">
        <phase duration="25" state="GGGggrrrrrGGgggrrrrrrrrrr"/>
        <phase duration="3"  state="yyyyyrrrrryyyyyrrrrrrrrrr"/>
        <phase duration="1"  state="rrrrrrrrrrrrrrrrrrrrrrrrr"/>
        <phase duration="27" state="rrrrrGGGggrrrrrGGgggrrrrr"/>
        <phase duration="3"  state="rrrrryyyyyrrrrryyyyyrrrrr"/>
        <phase duration="1"  state="rrrrrrrrrrrrrrrrrrrrrrrrr"/>
        <phase duration="27" state="GrrrrrrrrrrrrrrrrrrrGGGGg"/>
        <phase duration="3"  state="yrrrrrrrrrrrrrrrrrrryyyyy"/>
    </tlLogic>
    <tlLogic id="joinedS_10269289715_276080655_7289280594_7289390436_#2more" type="static" programID="0" offset="0">
        <phase duration="7"  state="Grrrrrrrrrrrrrrrrrrrrrrrrrrrrrrr"/>
        <phase duration="3"  state="yrrrrrrrrrrrrrrrrrrrrrrrrrrrrrrr"/>
        <phase duration="7"  state="rGrrrrrrrrrrrrrrrrrrrrrrrrrrrrrr"/>
        <phase duration="3"  state="ryrrrrrrrrrrrrrrrrrrrrrrrrrrrrrr"/>
        <phase duration="7"  state="rrrrrrGGGGrrrrrrrrrGrrGrrrrrrrrr"/>
        <phase duration="3"  state="rrrrrryyyyrrrrrrrrryrryrrrrrrrrr"/>
        <phase duration="7"  state="rrrrrrrrrrrrrrGGGGrGrrGrrrrrrrrr"/>
        <phase duration="3"  state="rrrrrrrrrrrrrryyyyryrryrrrrrrrrr"/>
        <phase duration="7"  state="rrrrrrrrrrrrrrrrrrGrrrrrrrGGGrrr"/>
        <phase duration="3"  state="rrrrrrrrrrrrrrrrrryrrrrrrryyyrrr"/>
        <phase duration="7"  state="rrrrrrrrrrGGGGrrrrrGGrGrrrrrrrrr"/>
        <phase duration="3"  state="rrrrrrrrrryyyyrrrrryyryrrrrrrrrr"/>
        <phase duration="7"  state="rrGGGGrrrrrrrrrrrrrGrGGrrrrrrrrr"/>
        <phase duration="3"  state="rryyyyrrrrrrrrrrrrryryyrrrrrrrrr"/>
        <phase duration="7"  state="rrrrrrrrrrrrrrrrrrrrrrrGGGrrrrrr"/>
        <phase duration="3"  state="rrrrrrrrrrrrrrrrrrrrrrryyyrrrrrr"/>
        <phase duration="7"  state="rrrrrrrrrrrrrrrrrrrrrrrrrrrrrGGG"/>
        <phase duration="3"  state="rrrrrrrrrrrrrrrrrrrrrrrrrrrrryyy"/>
    </tlLogic>
    <tlLogic id="joinedS_10271132830_1759258972_1759258989_1759259006_#2more" type="static" programID="0" offset="0">
        <phase duration="7"  state="Grrrrrrrrrrrrrrrrrrrrrrrrrrrr"/>
        <phase duration="3"  state="yrrrrrrrrrrrrrrrrrrrrrrrrrrrr"/>
        <phase duration="7"  state="rGGrGrrrrrrrrrrGGGGrrrrrrrrrr"/>
        <phase duration="3"  state="ryyryrrrrrrrrrryyyyrrrrrrrrrr"/>
        <phase duration="7"  state="rGrGGrrGGGGrrrrrrrrrrrrrrrrrr"/>
        <phase duration="3"  state="ryryyrryyyyrrrrrrrrrrrrrrrrrr"/>
        <phase duration="7"  state="rrrrrGrrrrrrrrrrrrrrrrrrrrrrr"/>
        <phase duration="3"  state="rrrrryrrrrrrrrrrrrrrrrrrrrrrr"/>
        <phase duration="7"  state="rrrrrrGrrrrrrrrrrrrrrrrrrrrrr"/>
        <phase duration="3"  state="rrrrrryrrrrrrrrrrrrrrrrrrrrrr"/>
        <phase duration="7"  state="rGrrGrrrrrrGGGGrrrrrrrrrrrrrr"/>
        <phase duration="3"  state="ryrryrrrrrryyyyrrrrrrrrrrrrrr"/>
        <phase duration="7"  state="rGrrGrrrrrrrrrrrrrrGGGGrrrrrr"/>
        <phase duration="3"  state="ryrryrrrrrrrrrrrrrryyyyrrrrrr"/>
        <phase duration="7"  state="rrrrrrrrrrrrrrrrrrrrrrrGGGrrr"/>
        <phase duration="3"  state="rrrrrrrrrrrrrrrrrrrrrrryyyrrr"/>
        <phase duration="7"  state="rrrrrrrrrrrrrrrrrrrrrrrrrrGGG"/>
        <phase duration="3"  state="rrrrrrrrrrrrrrrrrrrrrrrrrryyy"/>
    </tlLogic>
    <tlLogic id="joinedS_12110754038_5522501101_5522504811_5522504812_#4more" type="static" programID="0" offset="0">
        <phase duration="31" state="Grrrrrrrrrrrrrrrrrrr"/>
        <phase duration="3"  state="yrrrrrrrrrrrrrrrrrrr"/>
        <phase duration="31" state="rGrrrrrrrrrrrrrrrrrr"/>
        <phase duration="3"  state="ryrrrrrrrrrrrrrrrrrr"/>
        <phase duration="31" state="rrGrrrrrrrrrrrrrrrrr"/>
        <phase duration="3"  state="rryrrrrrrrrrrrrrrrrr"/>
        <phase duration="31" state="rrrGrrrrrrrrrrrrrrrr"/>
        <phase duration="3"  state="rrryrrrrrrrrrrrrrrrr"/>
        <phase duration="31" state="rrrrGrrrrrrrrrrrrrrr"/>
        <phase duration="3"  state="rrrryrrrrrrrrrrrrrrr"/>
        <phase duration="31" state="rrrrrGrrrrrrrrrrrrrr"/>
        <phase duration="3"  state="rrrrryrrrrrrrrrrrrrr"/>
        <phase duration="31" state="rrrrrrGrrrrrrrrrrrrr"/>
        <phase duration="3"  state="rrrrrryrrrrrrrrrrrrr"/>
        <phase duration="31" state="rrrrrrrGrrrrrrrrrrrr"/>
        <phase duration="3"  state="rrrrrrryrrrrrrrrrrrr"/>
        <phase duration="31" state="rrrrrrrrGrrrrrrrrrrr"/>
        <phase duration="3"  state="rrrrrrrryrrrrrrrrrrr"/>
        <phase duration="31" state="rrrrrrrrrGrrrrrrrrrr"/>
        <phase duration="3"  state="rrrrrrrrryrrrrrrrrrr"/>
        <phase duration="31" state="rrrrrrrrrrGrrrGGGrrr"/>
        <phase duration="3"  state="rrrrrrrrrryrrryyyrrr"/>
        <phase duration="31" state="rrrrrrrrrrrGGGrrrrrr"/>
        <phase duration="3"  state="rrrrrrrrrrryyyrrrrrr"/>
        <phase duration="31" state="rrrrrrrrrrrrrrrrrGGG"/>
        <phase duration="3"  state="rrrrrrrrrrrrrrrrryyy"/>
    </tlLogic>
    <tlLogic id="joinedS_5522747354_5522747355_5522747356_5522753789_#2more" type="static" programID="0" offset="0">
        <phase duration="7"  state="Grrrrrrrrrrrrrrrr"/>
        <phase duration="3"  state="yrrrrrrrrrrrrrrrr"/>
        <phase duration="7"  state="rGrrrrrrrrrrrrrrr"/>
        <phase duration="3"  state="ryrrrrrrrrrrrrrrr"/>
        <phase duration="7"  state="rrGrrrrrrrrrrrrrr"/>
        <phase duration="3"  state="rryrrrrrrrrrrrrrr"/>
        <phase duration="7"  state="rrrGrrrrrrrrrrrrr"/>
        <phase duration="3"  state="rrryrrrrrrrrrrrrr"/>
        <phase duration="7"  state="rrrrGrrrrrrrrrrrr"/>
        <phase duration="3"  state="rrrryrrrrrrrrrrrr"/>
        <phase duration="7"  state="rrrrrGrrrrrrrrrrr"/>
        <phase duration="3"  state="rrrrryrrrrrrrrrrr"/>
        <phase duration="7"  state="rrrrrrGGGGGrrrrrr"/>
        <phase duration="3"  state="rrrrrryyyyyrrrrrr"/>
        <phase duration="7"  state="rrrrrrGrrrrGGGrrr"/>
        <phase duration="3"  state="rrrrrryrrrryyyrrr"/>
        <phase duration="7"  state="rrrrrrGrrrrrrrGGG"/>
        <phase duration="3"  state="rrrrrryrrrrrrryyy"/>
    </tlLogic>

    <connection from="-1008296839#3" to="-1008296839#2" fromLane="0" toLane="0" tl="joinedS_5522747354_5522747355_5522747356_5522753789_#2more" linkIndex="5"/>
    <connection from="-1104058776#1" to="693951078#0" fromLane="0" toLane="0" tl="cluster_10103022275_1640413805_275304009_2902746967_#5more" linkIndex="80"/>
    <connection from="-1104058776#1" to="-49247621#0" fromLane="0" toLane="0" tl="cluster_10103022275_1640413805_275304009_2902746967_#5more" linkIndex="81"/>
    <connection from="-1104058776#1" to="-286595754#2" fromLane="0" toLane="0" tl="cluster_10103022275_1640413805_275304009_2902746967_#5more" linkIndex="82"/>
    <connection from="-1104058776#1" to="49247621#1" fromLane="0" toLane="0" tl="cluster_10103022275_1640413805_275304009_2902746967_#5more" linkIndex="83"/>
    <connection from="-1104058776#1" to="49247612#7" fromLane="0" toLane="0" tl="cluster_10103022275_1640413805_275304009_2902746967_#5more" linkIndex="84"/>
    <connection from="-1104058776#1" to="693951079#1" fromLane="0" toLane="0" tl="cluster_10103022275_1640413805_275304009_2902746967_#5more" linkIndex="85"/>
    <connection from="-1104058776#1" to="-1104058777#0" fromLane="0" toLane="0" tl="cluster_10103022275_1640413805_275304009_2902746967_#5more" linkIndex="86"/>
    <connection from="-1104058776#1" to="-49247612#4" fromLane="0" toLane="0" tl="cluster_10103022275_1640413805_275304009_2902746967_#5more" linkIndex="87"/>
    <connection from="-1104058776#1" to="-25266278#5" fromLane="0" toLane="0" tl="cluster_10103022275_1640413805_275304009_2902746967_#5more" linkIndex="88"/>
    <connection from="-1104058776#1" to="1104058776#1" fromLane="0" toLane="0" tl="cluster_10103022275_1640413805_275304009_2902746967_#5more" linkIndex="89"/>
    <connection from="-1207486477#2" to="1307929465#1" fromLane="0" toLane="0" tl="joinedS_5522747354_5522747355_5522747356_5522753789_#2more" linkIndex="14"/>
    <connection from="-1207486477#2" to="-1207486477#0" fromLane="0" toLane="0" tl="joinedS_5522747354_5522747355_5522747356_5522753789_#2more" linkIndex="15"/>
    <connection from="-1207486477#2" to="1207486477#2" fromLane="0" toLane="0" tl="joinedS_5522747354_5522747355_5522747356_5522753789_#2more" linkIndex="16"/>
    <connection from="-1209786786#0" to="-1209786785#0" fromLane="0" toLane="0" tl="joinedS_12110754038_5522501101_5522504811_5522504812_#4more" linkIndex="5"/>
    <connection from="-1307929468" to="-1008296838#2" fromLane="0" toLane="0" tl="joinedS_5522747354_5522747355_5522747356_5522753789_#2more" linkIndex="0"/>
    <connection from="-164272028#3" to="-560388067#2" fromLane="0" toLane="0" tl="GS_cluster_5527805967_625198978" linkIndex="4"/>
    <connection from="-164272028#3" to="164272028#1" fromLane="0" toLane="0" tl="GS_cluster_5527805967_625198978" linkIndex="5"/>
    <connection from="-164272028#5" to="-164272028#3" fromLane="0" toLane="0" tl="joinedS_10271132830_1759258972_1759258989_1759259006_#2more" linkIndex="26"/>
    <connection from="-164272028#5" to="144912048#0" fromLane="0" toLane="0" tl="joinedS_10271132830_1759258972_1759258989_1759259006_#2more" linkIndex="27"/>
    <connection from="-164272028#5" to="164272028#5" fromLane="0" toLane="0" tl="joinedS_10271132830_1759258972_1759258989_1759259006_#2more" linkIndex="28"/>
    <connection from="-164272030#0" to="-296087333#5" fromLane="0" toLane="0" tl="joinedS_10271132830_1759258972_1759258989_1759259006_#2more" linkIndex="19"/>
    <connection from="-164272030#0" to="-164272028#6" fromLane="0" toLane="0" tl="joinedS_10271132830_1759258972_1759258989_1759259006_#2more" linkIndex="20"/>
    <connection from="-164272030#0" to="560395151#0" fromLane="0" toLane="0" tl="joinedS_10271132830_1759258972_1759258989_1759259006_#2more" linkIndex="21"/>
    <connection from="-164272030#0" to="164272030#0" fromLane="0" toLane="0" tl="joinedS_10271132830_1759258972_1759258989_1759259006_#2more" linkIndex="22"/>
    <connection from="-164272030#3" to="-164272030#1" fromLane="0" toLane="0" tl="joinedS_10271132830_1759258972_1759258989_1759259006_#2more" linkIndex="6"/>
    <connection from="-25266408#0" to="25343599" fromLane="0" toLane="0" tl="275296602" linkIndex="8"/>
    <connection from="-25266408#0" to="-710730845#2" fromLane="0" toLane="0" tl="275296602" linkIndex="9"/>
    <connection from="-25266408#0" to="25329978#0" fromLane="0" toLane="0" tl="275296602" linkIndex="10"/>
    <connection from="-25266408#0" to="25266408#0" fromLane="0" toLane="0" tl="275296602" linkIndex="11"/>
    <connection from="-25329887#3" to="-25329887#2" fromLane="0" toLane="0" tl="1759259021" linkIndex="0"/>
    <connection from="-25329978#0" to="25266408#0" fromLane="0" toLane="0" tl="275296602" linkIndex="0"/>
    <connection from="-25329978#0" to="25343599" fromLane="0" toLane="0" tl="275296602" linkIndex="1"/>
    <connection from="-25329978#0" to="-710730845#2" fromLane="0" toLane="0" tl="275296602" linkIndex="2"/>
    <connection from="-25329978#0" to="25329978#0" fromLane="0" toLane="0" tl="275296602" linkIndex="3"/>
    <connection from="-27510758#10" to="-27510758#9" fromLane="0" toLane="0" tl="joinedS_12110754038_5522501101_5522504811_5522504812_#4more" linkIndex="7"/>
    <connection from="-27510758#8" to="-27510758#7" fromLane="0" toLane="0" tl="joinedS_12110754038_5522501101_5522504811_5522504812_#4more" linkIndex="0"/>
    <connection from="-286595747#2" to="-286595747#1" fromLane="0" toLane="0" tl="joinedS_10269289715_276080655_7289280594_7289390436_#2more" linkIndex="19"/>
    <connection from="-286595764#4" to="-286595764#2" fromLane="0" toLane="0" tl="cluster_1583941335_5586192852_9790616905" linkIndex="3"/>
    <connection from="-286595764#4" to="144912002#1" fromLane="0" toLane="0" tl="cluster_1583941335_5586192852_9790616905" linkIndex="4"/>
    <connection from="-286595764#4" to="286595764#4" fromLane="0" toLane="0" tl="cluster_1583941335_5586192852_9790616905" linkIndex="5"/>
    <connection from="-296087333#2" to="-296087333#0" fromLane="0" toLane="0" tl="1759259004" linkIndex="0"/>
    <connection from="-296087333#4" to="-296087333#2" fromLane="0" toLane="0" tl="1759258987" linkIndex="0"/>
    <connection from="-296087333#5" to="-296087333#4" fromLane="0" toLane="0" tl="joinedS_10271132830_1759258972_1759258989_1759259006_#2more" linkIndex="1"/>
    <connection from="-297349613#1" to="466139534#0" fromLane="0" toLane="0" tl="cluster_321877751_4610106393" linkIndex="0"/>
    <connection from="-297349613#1" to="57833709#0" fromLane="0" toLane="0" tl="cluster_321877751_4610106393" linkIndex="1"/>
    <connection from="-297349613#1" to="-297349616#2" fromLane="0" toLane="0" tl="cluster_321877751_4610106393" linkIndex="2"/>
    <connection from="-297349613#1" to="-297349615#7" fromLane="0" toLane="0" tl="cluster_321877751_4610106393" linkIndex="3"/>
    <connection from="-297349613#1" to="297349613#1" fromLane="0" toLane="0" tl="cluster_321877751_4610106393" linkIndex="4"/>
    <connection from="-297704256#3" to="-297704256#1" fromLane="0" toLane="0" tl="joinedS_10269289715_276080655_7289280594_7289390436_#2more" linkIndex="29"/>
    <connection from="-297704256#3" to="49247537#2" fromLane="0" toLane="0" tl="joinedS_10269289715_276080655_7289280594_7289390436_#2more" linkIndex="30"/>
    <connection from="-297704256#3" to="297704256#3" fromLane="0" toLane="0" tl="joinedS_10269289715_276080655_7289280594_7289390436_#2more" linkIndex="31"/>
    <connection from="-466139534#0" to="57833709#0" fromLane="0" toLane="0" tl="cluster_321877751_4610106393" linkIndex="20"/>
    <connection from="-466139534#0" to="-297349616#2" fromLane="0" toLane="0" tl="cluster_321877751_4610106393" linkIndex="21"/>
    <connection from="-466139534#0" to="-297349615#7" fromLane="0" toLane="0" tl="cluster_321877751_4610106393" linkIndex="22"/>
    <connection from="-466139534#0" to="297349613#1" fromLane="0" toLane="0" tl="cluster_321877751_4610106393" linkIndex="23"/>
    <connection from="-466139534#0" to="466139534#0" fromLane="0" toLane="0" tl="cluster_321877751_4610106393" linkIndex="24"/>
    <connection from="-47358647#0" to="-286595747#2" fromLane="0" toLane="0" tl="joinedS_10269289715_276080655_7289280594_7289390436_#2more" linkIndex="14"/>
    <connection from="-47358647#0" to="-297704256#4" fromLane="0" toLane="0" tl="joinedS_10269289715_276080655_7289280594_7289390436_#2more" linkIndex="15"/>
    <connection from="-47358647#0" to="710871898#0" fromLane="0" toLane="0" tl="joinedS_10269289715_276080655_7289280594_7289390436_#2more" linkIndex="16"/>
    <connection from="-47358647#0" to="47358647#0" fromLane="0" toLane="0" tl="joinedS_10269289715_276080655_7289280594_7289390436_#2more" linkIndex="17"/>
    <connection from="-47358647#2" to="-47358647#1" fromLane="0" toLane="0" tl="joinedS_10269289715_276080655_7289280594_7289390436_#2more" linkIndex="1"/>
    <connection from="-49247561#2" to="-49247561#0" fromLane="0" toLane="0" tl="joinedS_12110754038_5522501101_5522504811_5522504812_#4more" linkIndex="17"/>
    <connection from="-49247561#2" to="144875540#0" fromLane="0" toLane="0" tl="joinedS_12110754038_5522501101_5522504811_5522504812_#4more" linkIndex="18"/>
    <connection from="-49247561#2" to="49247561#2" fromLane="0" toLane="0" tl="joinedS_12110754038_5522501101_5522504811_5522504812_#4more" linkIndex="19"/>
    <connection from="-49247612#7" to="693951079#1" fromLane="0" toLane="0" tl="cluster_10103022275_1640413805_275304009_2902746967_#5more" linkIndex="30"/>
    <connection from="-49247612#7" to="-1104058777#0" fromLane="0" toLane="0" tl="cluster_10103022275_1640413805_275304009_2902746967_#5more" linkIndex="31"/>
    <connection from="-49247612#7" to="-49247612#4" fromLane="0" toLane="0" tl="cluster_10103022275_1640413805_275304009_2902746967_#5more" linkIndex="32"/>
    <connection from="-49247612#7" to="-25266278#5" fromLane="0" toLane="0" tl="cluster_10103022275_1640413805_275304009_2902746967_#5more" linkIndex="33"/>
    <connection from="-49247612#7" to="1104058776#1" fromLane="0" toLane="0" tl="cluster_10103022275_1640413805_275304009_2902746967_#5more" linkIndex="34"/>
    <connection from="-49247612#7" to="693951078#0" fromLane="0" toLane="0" tl="cluster_10103022275_1640413805_275304009_2902746967_#5more" linkIndex="35"/>
    <connection from="-49247612#7" to="-49247621#0" fromLane="0" toLane="0" tl="cluster_10103022275_1640413805_275304009_2902746967_#5more" linkIndex="36"/>
    <connection from="-49247612#7" to="-286595754#2" fromLane="0" toLane="0" tl="cluster_10103022275_1640413805_275304009_2902746967_#5more" linkIndex="37"/>
    <connection from="-49247612#7" to="49247621#1" fromLane="0" toLane="0" tl="cluster_10103022275_1640413805_275304009_2902746967_#5more" linkIndex="38"/>
    <connection from="-49247612#7" to="49247612#7" fromLane="0" toLane="0" tl="cluster_10103022275_1640413805_275304009_2902746967_#5more" linkIndex="39"/>
    <connection from="-49247621#1" to="49247612#7" fromLane="0" toLane="0" tl="cluster_10103022275_1640413805_275304009_2902746967_#5more" linkIndex="40"/>
    <connection from="-49247621#1" to="693951079#1" fromLane="0" toLane="0" tl="cluster_10103022275_1640413805_275304009_2902746967_#5more" linkIndex="41"/>
    <connection from="-49247621#1" to="-1104058777#0" fromLane="0" toLane="0" tl="cluster_10103022275_1640413805_275304009_2902746967_#5more" linkIndex="42"/>
    <connection from="-49247621#1" to="-49247612#4" fromLane="0" toLane="0" tl="cluster_10103022275_1640413805_275304009_2902746967_#5more" linkIndex="43"/>
    <connection from="-49247621#1" to="-25266278#5" fromLane="0" toLane="0" tl="cluster_10103022275_1640413805_275304009_2902746967_#5more" linkIndex="44"/>
    <connection from="-49247621#1" to="1104058776#1" fromLane="0" toLane="0" tl="cluster_10103022275_1640413805_275304009_2902746967_#5more" linkIndex="45"/>
    <connection from="-49247621#1" to="693951078#0" fromLane="0" toLane="0" tl="cluster_10103022275_1640413805_275304009_2902746967_#5more" linkIndex="46"/>
    <connection from="-49247621#1" to="-49247621#0" fromLane="0" toLane="0" tl="cluster_10103022275_1640413805_275304009_2902746967_#5more" linkIndex="47"/>
    <connection from="-49247621#1" to="-286595754#2" fromLane="0" toLane="0" tl="cluster_10103022275_1640413805_275304009_2902746967_#5more" linkIndex="48"/>
    <connection from="-49247621#1" to="49247621#1" fromLane="0" toLane="0" tl="cluster_10103022275_1640413805_275304009_2902746967_#5more" linkIndex="49"/>
    <connection from="-519902513#0" to="-1307929469" fromLane="0" toLane="0" tl="joinedS_5522747354_5522747355_5522747356_5522753789_#2more" linkIndex="2"/>
    <connection from="-560395151#0" to="164272030#0" fromLane="0" toLane="0" tl="joinedS_10271132830_1759258972_1759258989_1759259006_#2more" linkIndex="7"/>
    <connection from="-560395151#0" to="-296087333#5" fromLane="0" toLane="0" tl="joinedS_10271132830_1759258972_1759258989_1759259006_#2more" linkIndex="8"/>
    <connection from="-560395151#0" to="-164272028#6" fromLane="0" toLane="0" tl="joinedS_10271132830_1759258972_1759258989_1759259006_#2more" linkIndex="9"/>
    <connection from="-560395151#0" to="560395151#0" fromLane="0" toLane="0" tl="joinedS_10271132830_1759258972_1759258989_1759259006_#2more" linkIndex="10"/>
    <connection from="-560395151#2" to="-560395151#0" fromLane="0" toLane="0" tl="joinedS_10271132830_1759258972_1759258989_1759259006_#2more" linkIndex="3"/>
    <connection from="-560395151#5" to="-560395151#4" fromLane="0" toLane="0" tl="joinedS_12110754038_5522501101_5522504811_5522504812_#4more" linkIndex="3"/>
    <connection from="-57833709#0" to="-297349616#2" fromLane="0" toLane="0" tl="cluster_321877751_4610106393" linkIndex="15"/>
    <connection from="-57833709#0" to="-297349615#7" fromLane="0" toLane="0" tl="cluster_321877751_4610106393" linkIndex="16"/>
    <connection from="-57833709#0" to="297349613#1" fromLane="0" toLane="0" tl="cluster_321877751_4610106393" linkIndex="17"/>
    <connection from="-57833709#0" to="466139534#0" fromLane="0" toLane="0" tl="cluster_321877751_4610106393" linkIndex="18"/>
    <connection from="-57833709#0" to="57833709#0" fromLane="0" toLane="0" tl="cluster_321877751_4610106393" linkIndex="19"/>
    <connection from="-710871898#0" to="47358647#0" fromLane="0" toLane="0" tl="joinedS_10269289715_276080655_7289280594_7289390436_#2more" linkIndex="2"/>
    <connection from="-710871898#0" to="-286595747#2" fromLane="0" toLane="0" tl="joinedS_10269289715_276080655_7289280594_7289390436_#2more" linkIndex="3"/>
    <connection from="-710871898#0" to="-297704256#4" fromLane="0" toLane="0" tl="joinedS_10269289715_276080655_7289280594_7289390436_#2more" linkIndex="4"/>
    <connection from="-710871898#0" to="710871898#0" fromLane="0" toLane="0" tl="joinedS_10269289715_276080655_7289280594_7289390436_#2more" linkIndex="5"/>
    <connection from="-710871898#1" to="-710871898#0" fromLane="0" toLane="0" tl="joinedS_10269289715_276080655_7289280594_7289390436_#2more" linkIndex="21"/>
    <connection from="-710871898#4" to="-710871898#3" fromLane="0" toLane="0" tl="5527795799" linkIndex="0"/>
    <connection from="1008296838#2" to="1307929468" fromLane="0" toLane="0" tl="joinedS_5522747354_5522747355_5522747356_5522753789_#2more" linkIndex="1"/>
    <connection from="1008296839#2" to="1008296839#3" fromLane="0" toLane="0" tl="joinedS_5522747354_5522747355_5522747356_5522753789_#2more" linkIndex="4"/>
    <connection from="1104058773#1" to="-286595754#2" fromLane="0" toLane="0" tl="cluster_10103022275_1640413805_275304009_2902746967_#5more" linkIndex="60"/>
    <connection from="1104058773#1" to="49247621#1" fromLane="0" toLane="0" tl="cluster_10103022275_1640413805_275304009_2902746967_#5more" linkIndex="61"/>
    <connection from="1104058773#1" to="49247612#7" fromLane="0" toLane="0" tl="cluster_10103022275_1640413805_275304009_2902746967_#5more" linkIndex="62"/>
    <connection from="1104058773#1" to="693951079#1" fromLane="0" toLane="0" tl="cluster_10103022275_1640413805_275304009_2902746967_#5more" linkIndex="63"/>
    <connection from="1104058773#1" to="-1104058777#0" fromLane="0" toLane="0" tl="cluster_10103022275_1640413805_275304009_2902746967_#5more" linkIndex="64"/>
    <connection from="1104058773#1" to="-49247612#4" fromLane="0" toLane="0" tl="cluster_10103022275_1640413805_275304009_2902746967_#5more" linkIndex="65"/>
    <connection from="1104058773#1" to="-25266278#5" fromLane="0" toLane="0" tl="cluster_10103022275_1640413805_275304009_2902746967_#5more" linkIndex="66"/>
    <connection from="1104058773#1" to="1104058776#1" fromLane="0" toLane="0" tl="cluster_10103022275_1640413805_275304009_2902746967_#5more" linkIndex="67"/>
    <connection from="1104058773#1" to="693951078#0" fromLane="0" toLane="0" tl="cluster_10103022275_1640413805_275304009_2902746967_#5more" linkIndex="68"/>
    <connection from="1104058773#1" to="-49247621#0" fromLane="0" toLane="0" tl="cluster_10103022275_1640413805_275304009_2902746967_#5more" linkIndex="69"/>
    <connection from="1104058784#1" to="-49247612#4" fromLane="0" toLane="0" tl="cluster_10103022275_1640413805_275304009_2902746967_#5more" linkIndex="10"/>
    <connection from="1104058784#1" to="-25266278#5" fromLane="0" toLane="0" tl="cluster_10103022275_1640413805_275304009_2902746967_#5more" linkIndex="11"/>
    <connection from="1104058784#1" to="1104058776#1" fromLane="0" toLane="0" tl="cluster_10103022275_1640413805_275304009_2902746967_#5more" linkIndex="12"/>
    <connection from="1104058784#1" to="693951078#0" fromLane="0" toLane="0" tl="cluster_10103022275_1640413805_275304009_2902746967_#5more" linkIndex="13"/>
    <connection from="1104058784#1" to="-49247621#0" fromLane="0" toLane="0" tl="cluster_10103022275_1640413805_275304009_2902746967_#5more" linkIndex="14"/>
    <connection from="1104058784#1" to="-286595754#2" fromLane="0" toLane="0" tl="cluster_10103022275_1640413805_275304009_2902746967_#5more" linkIndex="15"/>
    <connection from="1104058784#1" to="49247621#1" fromLane="0" toLane="0" tl="cluster_10103022275_1640413805_275304009_2902746967_#5more" linkIndex="16"/>
    <connection from="1104058784#1" to="49247612#7" fromLane="0" toLane="0" tl="cluster_10103022275_1640413805_275304009_2902746967_#5more" linkIndex="17"/>
    <connection from="1104058784#1" to="693951079#1" fromLane="0" toLane="0" tl="cluster_10103022275_1640413805_275304009_2902746967_#5more" linkIndex="18"/>
    <connection from="1104058784#1" to="-1104058777#0" fromLane="0" toLane="0" tl="cluster_10103022275_1640413805_275304009_2902746967_#5more" linkIndex="19"/>
    <connection from="1207486477#0" to="1207486477#2" fromLane="0" toLane="0" tl="joinedS_5522747354_5522747355_5522747356_5522753789_#2more" linkIndex="11"/>
    <connection from="1207486477#0" to="1307929465#1" fromLane="0" toLane="0" tl="joinedS_5522747354_5522747355_5522747356_5522753789_#2more" linkIndex="12"/>
    <connection from="1207486477#0" to="-1207486477#0" fromLane="0" toLane="0" tl="joinedS_5522747354_5522747355_5522747356_5522753789_#2more" linkIndex="13"/>
    <connection from="1209786785#0" to="1209786785#1" fromLane="0" toLane="0" tl="joinedS_12110754038_5522501101_5522504811_5522504812_#4more" linkIndex="6"/>