<?xml version="1.0" encoding="UTF-8"?>

<!-- generated on 2025-04-04 16:25:17 by Eclipse SUMO netconvert Version 1.19.0
<configuration xmlns:xsi="http://www.w3.org/2001/XMLSchema-instance" xsi:noNamespaceSchemaLocation="http://sumo.dlr.de/xsd/netconvertConfiguration.xsd">

    <input>
        <sumo-net-file value="bussy_saint_georges/bussy_saint_georges.net.xml"/>
    </input>

    <output>
        <plain-output-prefix value="bussy_saint_georges/bussy_saint_georges"/>
    </output>

    <processing>
        <geometry.min-radius.fix.railways value="false"/>
        <geometry.max-grade.fix value="false"/>
        <offset.disable-normalization value="true"/>
        <lefthand value="0"/>
    </processing>

    <tls_building>
        <tls.ignore-internal-junction-jam value="1"/>
    </tls_building>

    <junctions>
        <no-turnarounds value="true"/>
        <junctions.corner-detail value="5"/>
        <junctions.limit-turn-speed value="5.50"/>
        <rectangular-lane-cut value="0"/>
    </junctions>

    <pedestrian>
        <walkingareas value="0"/>
    </pedestrian>

</configuration>
-->

<edges version="1.16" xmlns:xsi="http://www.w3.org/2001/XMLSchema-instance" xsi:noNamespaceSchemaLocation="http://sumo.dlr.de/xsd/edges_file.xsd">
    <location netOffset="-475523.28,-5407873.09" convBoundary="0.00,0.00,7749.58,4293.37" origBoundary="2.666475,48.823452,2.771971,48.862127" projParameter="+proj=utm +zone=31 +ellps=WGS84 +datum=WGS84 +units=m +no_defs"/>

    <edge id="-1008296837#0" from="5599822593" to="cluster_1025173283_2902747672" priority="11" type="highway.secondary" numLanes="1" speed="25.00" shape="5413.96,2149.89 5314.78,2077.75 5276.03,2052.06 5262.07,2042.77" disallow="tram rail_urban rail rail_electric rail_fast ship"/>
    <edge id="-1008296837#1" from="254845503" to="5599822593" priority="11" type="highway.secondary" numLanes="1" speed="25.00" shape="5691.67,2348.75 5503.70,2215.02 5413.96,2149.89" disallow="tram rail_urban rail rail_electric rail_fast ship"/>
    <edge id="-1008296838#0" from="5537640621" to="cluster_1583653976_8688093405" priority="11" type="highway.secondary" numLanes="1" speed="13.89" shape="3875.06,1718.48 3867.53,1717.05 3865.12,1716.63" disallow="tram rail_urban rail rail_electric rail_fast ship"/>
    <edge id="-1008296838#1" from="2902747609" to="5537640621" priority="11" type="highway.secondary" numLanes="1" speed="13.89" disallow="tram rail_urban rail rail_electric rail_fast ship"/>
    <edge id="-1008296838#2" from="5522747354" to="2902747609" priority="11" type="highway.secondary" numLanes="1" speed="13.89" disallow="tram rail_urban rail rail_electric rail_fast ship"/>
    <edge id="-1008296839#0" from="1583941386" to="5522747357" priority="10" type="highway.tertiary" numLanes="1" speed="13.89" disallow="tram rail_urban rail rail_electric rail_fast ship">
        <param key="ref" value="D 5"/>
    </edge>
    <edge id="-1008296839#1" from="1583941414" to="1583941386" priority="10" type="highway.tertiary" numLanes="1" speed="13.89" disallow="tram rail_urban rail rail_electric rail_fast ship">
        <param key="ref" value="D 5"/>
    </edge>
    <edge id="-1008296839#2" from="5522747356" to="1583941414" priority="10" type="highway.tertiary" numLanes="1" speed="13.89" disallow="tram rail_urban rail rail_electric rail_fast ship">
        <param key="ref" value="D 5"/>
    </edge>
    <edge id="-1008296839#3" from="1583653986" to="5522747356" priority="10" type="highway.tertiary" numLanes="1" speed="13.89" disallow="tram rail_urban rail rail_electric rail_fast ship">
        <param key="ref" value="D 5"/>
    </edge>
    <edge id="-1008296839#4" from="625195119" to="1583653986" priority="10" type="highway.tertiary" numLanes="1" speed="13.89" disallow="tram rail_urban rail rail_electric rail_fast ship">
        <param key="ref" value="D 5"/>
    </edge>
    <edge id="-1008296839#5" from="276095617" to="625195119" priority="10" type="highway.tertiary" numLanes="1" speed="13.89" disallow="tram rail_urban rail rail_electric rail_fast ship">
        <param key="ref" value="D 5"/>
    </edge>
    <edge id="-1008296840" from="3089404552" to="1547257623" priority="11" type="highway.secondary" numLanes="1" speed="27.78" shape="5354.64,1510.45 5400.49,1515.70 5472.46,1523.85 5615.28,1540.36 5733.51,1553.61 5865.66,1568.45 5906.18,1572.57" disallow="tram rail_urban rail rail_electric rail_fast ship">
        <param key="ref" value="D 406"/>
    </edge>
    <edge id="-1012821105#0" from="4791891528" to="4791891220" priority="1" type="highway.path" numLanes="1" speed="5.56" width="2.00" allow="pedestrian bicycle"/>
    <edge id="-1012821105#1" from="9344212378" to="4791891528" priority="1" type="highway.path" numLanes="1" speed="5.56" width="2.00" allow="pedestrian bicycle"/>
    <edge id="-1012821105#2" from="9344212356" to="9344212378" priority="1" type="highway.path" numLanes="1" speed="5.56" width="2.00" allow="pedestrian bicycle"/>
    <edge id="-1012821107#0" from="4791891523" to="cluster_9344212409_9790616909" priority="1" type="highway.path" numLanes="1" speed="5.56" shape="4174.09,1474.51 4103.94,1450.69 4093.22,1447.17" width="2.00" allow="pedestrian bicycle"/>
    <edge id="-1012821107#1" from="4791891522" to="4791891523" priority="1" type="highway.path" numLanes="1" speed="5.56" shape="4207.45,1487.56 4194.10,1480.76 4174.09,1474.51" width="2.00" allow="pedestrian bicycle"/>
    <edge id="-1012821109#0" from="9344212363" to="4791891522" priority="1" type="highway.path" numLanes="1" speed="5.56" width="2.00" allow="pedestrian bicycle"/>
    <edge id="-1012821109#1" from="9344212362" to="9344212363" priority="1" type="highway.path" numLanes="1" speed="5.56" width="2.00" allow="pedestrian bicycle"/>
    <edge id="-1012821109#2" from="9344212359" to="9344212362" priority="1" type="highway.path" numLanes="1" speed="5.56" width="2.00" allow="pedestrian bicycle"/>
    <edge id="-1012821110" from="9344212362" to="4791891523" priority="1" type="highway.path" numLanes="1" speed="5.56" shape="4215.10,1451.37 4182.97,1468.12 4174.09,1474.51" width="2.00" allow="pedestrian bicycle"/>
    <edge id="-1012821111" from="9344212366" to="9344212363" priority="1" type="highway.path" numLanes="1" speed="5.56" shape="4253.85,1492.34 4247.62,1490.14 4237.68,1475.54 4211.91,1466.47" width="2.00" allow="pedestrian bicycle"/>
    <edge id="-1012821112#1" from="4791891217" to="cluster_4791891531_9790616900" priority="1" type="highway.path" numLanes="1" speed="5.56" shape="4443.32,1535.56 4470.93,1534.07" width="2.00" allow="pedestrian bicycle"/>
    <edge id="-1012821112#2" from="4791891530" to="4791891217" priority="1" type="highway.path" numLanes="1" speed="5.56" width="2.00" allow="pedestrian bicycle"/>
    <edge id="-1012821118" from="9344212379" to="9344212378" priority="1" type="highway.path" numLanes="1" speed="5.56" width="2.00" allow="pedestrian bicycle"/>
    <edge id="-1012821130#0" from="8656149585" to="275865802" priority="10" type="highway.tertiary" numLanes="1" speed="8.33" shape="2317.69,1171.48 2317.74,1166.58 2317.78,1162.67" disallow="tram rail_urban rail rail_electric rail_fast ship">
        <param key="ref" value="D 35E"/>
    </edge>
    <edge id="-1012821131#0" from="1603644575" to="5637269647" priority="1" type="highway.service" numLanes="1" speed="5.56" shape="2511.30,1198.34 2512.19,1192.03 2513.87,1180.18" allow="pedestrian delivery bicycle"/>
    <edge id="-1012821131#1" from="9344213623" to="1603644575" priority="1" type="highway.service" numLanes="1" speed="5.56" shape="2533.58,1310.78 2492.74,1302.89 2497.92,1272.25 2511.30,1198.34" allow="pedestrian delivery bicycle"/>
    <edge id="-1012821133#0" from="5637269644" to="9344213669" priority="1" type="highway.service" numLanes="1" speed="5.56" shape="2520.22,1158.61 2522.10,1147.38 2536.83,1065.19" allow="pedestrian delivery bicycle"/>
    <edge id="-1012821133#1" from="cluster_1603644568_9344213618" to="5637269644" priority="1" type="highway.service" numLanes="1" speed="5.56" shape="2518.53,1169.48 2520.22,1158.61" allow="pedestrian delivery bicycle"/>
    <edge id="-1012821136#0" from="9344213654" to="9344213653" priority="1" type="highway.service" numLanes="1" speed="5.56" shape="2552.37,1039.95 2545.49,1038.63 2541.72,1037.91" allow="pedestrian delivery bicycle"/>
    <edge id="-1012821136#1" from="9344213664" to="9344213654" priority="1" type="highway.service" numLanes="1" speed="5.56" shape="2575.55,1061.65 2558.01,1043.46 2552.37,1039.95" allow="pedestrian delivery bicycle"/>
    <edge id="-1012821137#0" from="9344213668" to="9344213666" priority="1" type="highway.service" numLanes="1" speed="5.56" allow="pedestrian delivery bicycle"/>
    <edge id="-1012821137#1" from="9344213667" to="9344213668" priority="1" type="highway.service" numLanes="1" speed="5.56" allow="pedestrian delivery bicycle"/>
    <edge id="-1012821138" from="9344213668" to="9344213669" priority="1" type="highway.service" numLanes="1" speed="5.56" shape="2523.56,1063.09 2532.91,1064.56 2536.83,1065.19" allow="pedestrian delivery bicycle"/>
    <edge id="-1012821140" from="9344213643" to="9344213671" priority="1" type="highway.service" numLanes="1" speed="5.56" shape="2576.92,1011.99 2587.01,1011.19 2677.59,1029.30" allow="pedestrian delivery bicycle"/>
    <edge id="-1012821145#0" from="9344213683" to="9344213680" priority="1" type="highway.service" numLanes="1" speed="5.56" shape="2406.99,1183.05 2408.93,1173.26 2411.28,1161.58" allow="pedestrian delivery bicycle"/>
    <edge id="-1012821145#1" from="9344213690" to="9344213683" priority="1" type="highway.service" numLanes="1" speed="5.56" allow="pedestrian delivery bicycle"/>
    <edge id="-1012821145#2" from="9344213689" to="9344213690" priority="1" type="highway.service" numLanes="1" speed="5.56" allow="pedestrian delivery bicycle"/>
    <edge id="-1012821145#3" from="9344213682" to="9344213689" priority="1" type="highway.service" numLanes="1" speed="5.56" allow="pedestrian delivery bicycle"/>
    <edge id="-1012821146#0" from="9790482801" to="9344213689" priority="1" type="highway.service" numLanes="1" speed="5.56" shape="2482.64,1238.13 2475.05,1278.37 2390.94,1263.88" allow="pedestrian delivery bicycle"/>
    <edge id="-1012821146#1" from="9344213683" to="9790482801" priority="1" type="highway.service" numLanes="1" speed="5.56" shape="2406.99,1183.05 2490.00,1199.03 2482.64,1238.13" allow="pedestrian delivery bicycle"/>
    <edge id="-1012821146#2" from="9344213691" to="9344213683" priority="1" type="highway.service" numLanes="1" speed="5.56" shape="2343.62,1212.59 2344.36,1185.43 2346.24,1179.73 2349.75,1175.38 2355.44,1173.20 2406.99,1183.05" allow="pedestrian delivery bicycle"/>
    <edge id="-1012821146#3" from="9344213689" to="9344213691" priority="1" type="highway.service" numLanes="1" speed="5.56" shape="2390.94,1263.88 2342.46,1255.28 2343.62,1212.59" allow="pedestrian delivery bicycle"/>
    <edge id="-1012821147#0" from="9344213690" to="9790482801" priority="1" type="highway.service" numLanes="1" speed="5.56" allow="pedestrian delivery bicycle"/>
    <edge id="-1012821147#1" from="9344213691" to="9344213690" priority="1" type="highway.service" numLanes="1" speed="5.56" allow="pedestrian delivery bicycle"/>
    <edge id="-1012821148#0" from="9344213680" to="1603644546" priority="1" type="highway.service" numLanes="1" speed="5.56" allow="pedestrian delivery bicycle"/>
    <edge id="-1012821150" from="cluster_276171945_2793254107" to="276083054" priority="10" type="highway.tertiary" numLanes="1" speed="22.22" shape="2319.18,1650.65 2318.52,1591.32" disallow="tram rail_urban rail rail_electric rail_fast ship">
        <param key="ref" value="D 35E"/>
    </edge>
    <edge id="-1012821151" from="8473166662" to="2793254095" priority="1" type="highway.path" numLanes="1" speed="5.56" shape="2306.04,1443.97 2311.21,1450.59 2314.51,1465.81 2318.59,1464.75" width="2.00" allow="pedestrian bicycle"/>
    <edge id="-1012821153" from="cluster_275598736_2793254155_2793254266" to="2793254201" priority="1" type="highway.service" numLanes="1" speed="5.56" shape="2310.35,1350.07 2307.81,1344.57 2306.21,1340.49 2303.42,1333.26 2298.93,1328.37 2292.85,1325.11 2189.04,1298.84 2173.67,1297.06 2172.69,1293.22 2173.26,1289.87" allow="pedestrian delivery bicycle"/>
    <edge id="-1012821155" from="cluster_275598736_2793254155_2793254266" to="8656149585" priority="10" type="highway.tertiary" numLanes="1" speed="8.33" shape="2318.90,1342.83 2317.61,1293.59 2317.57,1179.07 2317.69,1171.48" disallow="tram rail_urban rail rail_electric rail_fast ship">
        <param key="ref" value="D 35E"/>
    </edge>
    <edge id="-1012821182" from="9344212410" to="1603469281" priority="1" type="highway.path" numLanes="1" speed="5.56" width="2.00" allow="pedestrian bicycle"/>
    <edge id="-1031462541#0" from="cluster_10094829088_9506360526" to="9506360527" priority="1" type="highway.path" numLanes="1" speed="5.56" shape="4506.13,1361.82 4529.90,1238.37" width="2.00" allow="pedestrian bicycle"/>
    <edge id="-1031462541#2" from="cluster_1547257766_1583941326_9344212386_9344212390" to="cluster_10094829088_9506360526" priority="1" type="highway.path" numLanes="1" speed="5.56" shape="4510.16,1382.43 4509.27,1372.29 4507.00,1364.73" width="2.00" allow="pedestrian bicycle"/>
    <edge id="-1031462548#0" from="9790633488" to="10579139237" priority="1" type="highway.service" numLanes="1" speed="5.56" shape="4262.73,1055.80 4259.00,1072.42 4243.16,1157.44" allow="pedestrian delivery bicycle"/>
    <edge id="-1031462548#1" from="cluster_5324047706_9506068609" to="9790633488" priority="1" type="highway.service" numLanes="1" speed="5.56" shape="4266.99,1033.61 4262.73,1055.80" allow="pedestrian delivery bicycle"/>
    <edge id="-1031462549#0" from="9506068613" to="9506068611" priority="1" type="highway.path" numLanes="1" speed="5.56" shape="4622.07,1212.45 4614.07,1226.55 4612.44,1229.84 4611.32,1233.61 4607.94,1251.63" width="2.00" allow="pedestrian bicycle"/>
    <edge id="-1031462549#1" from="9506360617" to="9506068613" priority="1" type="highway.path" numLanes="1" speed="5.56" shape="4630.76,1172.65 4631.01,1180.40 4634.96,1180.98 4622.07,1212.45" width="2.00" allow="pedestrian bicycle"/>
    <edge id="-1031462549#2" from="9506068616" to="9506360617" priority="1" type="highway.path" numLanes="1" speed="5.56" width="2.00" allow="pedestrian bicycle"/>
    <edge id="-103482562#0" from="1194795170" to="1194795166" priority="3" type="highway.residential" numLanes="1" speed="13.89" shape="3863.68,1108.58 3854.97,1101.04 3881.42,1034.01 3871.90,1029.95 3878.80,1012.28" disallow="pedestrian tram rail_urban rail rail_electric rail_fast ship"/>
    <edge id="-103482562#1" from="1194795165" to="1194795170" priority="3" type="highway.residential" numLanes="1" speed="13.89" shape="3836.14,1235.44 3837.14,1229.56 3842.25,1198.30 3849.62,1192.84 3856.67,1154.22 3849.80,1145.58 3863.68,1108.58" disallow="pedestrian tram rail_urban rail rail_electric rail_fast ship"/>
    <edge id="-1034989096" from="603028250" to="603028237" priority="3" type="highway.residential" numLanes="1" speed="13.89" shape="3010.18,1804.00 2997.87,1804.05 2974.58,1807.27 2964.24,1811.23" disallow="tram rail_urban rail rail_electric rail_fast ship"/>
    <edge id="-1051375139" from="9661681580" to="9661681579" priority="1" type="highway.path" numLanes="1" speed="5.56" width="2.00" allow="pedestrian bicycle"/>
    <edge id="-1051375140" from="9661681580" to="1676944217" priority="1" type="highway.service" numLanes="1" speed="5.56" shape="3020.64,2281.06 3016.29,2276.22 3011.42,2273.64 2978.29,2268.42 2973.02,2268.99 2970.03,2270.63" allow="pedestrian delivery bicycle"/>
    <edge id="-1053293135#0" from="275869955" to="275869954" priority="1" type="highway.path" numLanes="1" speed="5.56" width="2.00" allow="pedestrian bicycle"/>
    <edge id="-1053293135#1" from="2793254344" to="275869955" priority="1" type="highway.path" numLanes="1" speed="5.56" width="2.00" allow="pedestrian bicycle"/>
    <edge id="-1054397811" from="9689700053" to="9689700045" priority="1" type="highway.path" numLanes="1" speed="5.56" shape="2511.51,1496.37 2521.91,1492.46 2532.94,1490.66 2541.86,1490.12 2562.66,1485.08 2580.64,1493.74 2591.01,1496.82 2602.14,1498.54 2616.10,1497.22" width="2.00" allow="pedestrian bicycle"/>
    <edge id="-1054398339" from="5613880593" to="9689702095" priority="1" type="highway.path" numLanes="1" speed="5.56" shape="2834.27,1546.24 2821.11,1543.06 2811.24,1544.97 2801.31,1550.68 2780.72,1552.81 2758.79,1543.58 2737.98,1537.04 2727.57,1535.28 2717.33,1540.14 2710.45,1547.83 2709.03,1553.73" width="2.00" allow="pedestrian bicycle"/>
    <edge id="-1054398464#0" from="9689709239" to="9689700045" priority="1" type="highway.path" numLanes="1" speed="5.56" shape="2696.08,1550.01 2691.95,1548.82 2686.52,1539.53 2672.40,1525.54 2661.42,1517.61 2654.40,1511.16 2645.28,1505.66 2624.53,1498.87 2616.10,1497.22" width="2.00" allow="pedestrian bicycle"/>
    <edge id="-1054398464#1" from="9689702095" to="9689709239" priority="1" type="highway.path" numLanes="1" speed="5.56" width="2.00" allow="pedestrian bicycle"/>
    <edge id="-1054398749" from="9689709239" to="1603469286" priority="1" type="highway.path" numLanes="1" speed="5.56" width="2.00" allow="pedestrian bicycle"/>
    <edge id="-1054785708" from="1603469383" to="276171899" priority="1" type="highway.path" numLanes="1" speed="5.56" width="2.00" allow="pedestrian bicycle"/>
    <edge id="-1054805145" from="1603469560" to="1603469551" priority="1" type="highway.path" numLanes="1" speed="5.56" shape="3607.29,2111.45 3609.73,2099.61 3610.62,2095.27" width="2.00" allow="pedestrian bicycle"/>
    <edge id="-1054805225" from="1603469577" to="1603469554" priority="1" type="highway.path" numLanes="1" speed="5.56" shape="3667.47,2124.14 3669.32,2113.61 3670.68,2105.84" width="2.00" allow="pedestrian bicycle"/>
    <edge id="-1056450052#0" from="9707342177" to="cluster_275593995_9707342178" priority="1" type="highway.service" numLanes="1" speed="5.56" shape="2679.76,2070.20 2680.59,2062.21" allow="pedestrian delivery bicycle"/>
    <edge id="-1056450052#1" from="9707342176" to="9707342177" priority="1" type="highway.service" numLanes="1" speed="5.56" allow="pedestrian delivery bicycle"/>
    <edge id="-1056450053" from="9707342181" to="9707342183" priority="1" type="highway.service" numLanes="1" speed="5.56" shape="2618.94,2108.03 2595.51,2104.00 2570.92,2107.06" allow="pedestrian delivery bicycle"/>
    <edge id="-1056450055#0" from="cluster_275593995_9707342178" to="275593576" priority="10" type="highway.tertiary" numLanes="1" speed="13.89" shape="2688.35,2063.67 2774.22,2073.48 2782.58,2074.44 2785.13,2074.73" disallow="tram rail_urban rail rail_electric rail_fast ship"/>
    <edge id="-1056450055#2" from="5522408174" to="cluster_275593995_9707342178" priority="10" type="highway.tertiary" numLanes="1" speed="13.89" shape="2659.13,2058.18 2680.59,2062.21" disallow="tram rail_urban rail rail_electric rail_fast ship"/>
    <edge id="-1056450055#3" from="5599822559" to="5522408174" priority="10" type="highway.tertiary" numLanes="1" speed="13.89" shape="2582.14,2044.95 2594.47,2046.16 2659.13,2058.18" disallow="tram rail_urban rail rail_electric rail_fast ship"/>
    <edge id="-1056450055#4" from="5599822557" to="5599822559" priority="10" type="highway.tertiary" numLanes="1" speed="13.89" shape="2565.59,2044.82 2572.28,2043.98 2582.14,2044.95" disallow="tram rail_urban rail rail_electric rail_fast ship"/>
    <edge id="-1056450055#5" from="275594005" to="5599822557" priority="10" type="highway.tertiary" numLanes="1" speed="13.89" disallow="tram rail_urban rail rail_electric rail_fast ship"/>
    <edge id="-1056450055#6" from="cluster_1603469486_275594014_275993907" to="275594005" priority="10" type="highway.tertiary" numLanes="1" speed="13.89" shape="2537.50,2055.31 2553.27,2046.36" disallow="tram rail_urban rail rail_electric rail_fast ship"/>
    <edge id="-1056450056" from="275594038" to="275865789" priority="10" type="highway.tertiary" numLanes="1" speed="22.22" shape="2297.83,2098.79 2293.83,2090.72 2290.86,2084.72 2290.61,2082.01 2287.25,2062.23 2284.07,2058.40" disallow="tram rail_urban rail rail_electric rail_fast ship">
        <param key="ref" value="D 35E"/>
    </edge>
    <edge id="-1056450057" from="275594038" to="2793254255" priority="10" type="highway.tertiary" numLanes="1" speed="22.22" shape="2297.83,2098.79 2299.25,2112.01 2298.18,2123.41 2296.43,2133.34 2295.97,2138.88" disallow="tram rail_urban rail rail_electric rail_fast ship">
        <param key="ref" value="D 35E"/>
    </edge>
    <edge id="-1058616370" from="8201698351" to="5586192859" priority="10" type="highway.tertiary" numLanes="1" speed="22.22" shape="4936.77,1456.62 4935.62,1462.44 4899.43,1666.17" disallow="tram rail_urban rail rail_electric rail_fast ship"/>
    <edge id="-1058616373" from="8201698349" to="1547257909" priority="3" type="highway.residential" numLanes="1" speed="13.89" shape="4956.98,1345.76 4966.66,1347.43 4988.77,1351.28 5074.76,1367.20 5060.08,1454.40 5056.62,1475.01" disallow="tram rail_urban rail rail_electric rail_fast ship"/>
    <edge id="-1058618123" from="9727328595" to="9727328594" priority="3" type="highway.residential" numLanes="1" speed="13.89" disallow="tram rail_urban rail rail_electric rail_fast ship"/>
    <edge id="-1065946641" from="9788961607" to="9788961608" priority="1" type="highway.service" numLanes="1" speed="5.56" allow="pedestrian delivery bicycle"/>
    <edge id="-1065946642" from="9788961609" to="9788961610" priority="1" type="highway.service" numLanes="1" speed="5.56" allow="pedestrian delivery bicycle"/>
    <edge id="-1066141951" from="1603644469" to="9790490071" priority="1" type="highway.service" numLanes="1" speed="5.56" shape="2109.90,989.16 2119.95,980.48 2128.05,936.97" allow="pedestrian delivery bicycle"/>
    <edge id="-1066141952" from="9790490073" to="1603644469" priority="1" type="highway.service" numLanes="1" speed="5.56" shape="2108.28,915.46 2104.69,953.94 2105.57,977.10 2109.90,989.16" allow="pedestrian delivery bicycle"/>
    <edge id="-1066141953" from="9790490076" to="9790490077" priority="1" type="highway.service" numLanes="1" speed="5.56" allow="pedestrian delivery bicycle"/>
    <edge id="-1066141954" from="9790490081" to="9790490082" priority="1" type="highway.service" numLanes="1" speed="5.56" allow="pedestrian delivery bicycle"/>
    <edge id="-1066141955" from="9790490078" to="9790490081" priority="1" type="highway.service" numLanes="1" speed="5.56" shape="2169.29,1059.48 2177.67,1015.09 2123.40,1005.19 2107.56,1002.41" allow="pedestrian delivery bicycle"/>
    <edge id="-1066141958" from="9790490087" to="9790490088" priority="1" type="highway.service" numLanes="1" speed="5.56" allow="pedestrian delivery bicycle"/>
    <edge id="-1066141960" from="9790490091" to="9790490092" priority="1" type="highway.service" numLanes="1" speed="5.56" allow="pedestrian delivery bicycle"/>
    <edge id="-1066141961#0" from="9790490094" to="9790490095" priority="1" type="highway.service" numLanes="1" speed="5.56" allow="pedestrian delivery bicycle"/>
    <edge id="-1066141961#1" from="9790490093" to="9790490094" priority="1" type="highway.service" numLanes="1" speed="5.56" allow="pedestrian delivery bicycle"/>
    <edge id="-1066141962#0" from="6426350628" to="9790490097" priority="1" type="highway.service" numLanes="1" speed="5.56" shape="1979.28,1164.80 1978.43,1168.88 1976.13,1182.56" allow="pedestrian delivery bicycle"/>
    <edge id="-1066141962#1" from="9790490096" to="6426350628" priority="1" type="highway.service" numLanes="1" speed="5.56" allow="pedestrian delivery bicycle"/>
    <edge id="-1066141963" from="9790490098" to="cluster_9790490099_9790490104" priority="1" type="highway.service" numLanes="1" speed="5.56" shape="1954.98,1146.30 1952.46,1161.27" allow="pedestrian delivery bicycle"/>
    <edge id="-1066141964" from="9790490100" to="cluster_9790490101_9790490102" priority="1" type="highway.service" numLanes="1" speed="5.56" shape="1936.07,1142.74 1933.49,1158.79" allow="pedestrian delivery bicycle"/>
    <edge id="-1066141965" from="cluster_9790490101_9790490102" to="9790490103" priority="1" type="highway.service" numLanes="1" speed="5.56" shape="1931.20,1158.49 1930.54,1163.77 1929.02,1176.24" allow="pedestrian delivery bicycle"/>
    <edge id="-1066141966" from="cluster_9790490099_9790490104" to="9790490105" priority="1" type="highway.service" numLanes="1" speed="5.56" shape="1950.11,1160.97 1949.35,1166.14 1947.53,1178.52" allow="pedestrian delivery bicycle"/>
    <edge id="-1066141967#0" from="9790490107" to="9790490108" priority="1" type="highway.service" numLanes="1" speed="5.56" shape="1994.87,1167.32 1994.19,1171.73 1991.94,1185.11" allow="pedestrian delivery bicycle"/>
    <edge id="-1066141967#1" from="9790490106" to="9790490107" priority="1" type="highway.service" numLanes="1" speed="5.56" allow="pedestrian delivery bicycle"/>
    <edge id="-1066141968#0" from="9790490110" to="9790490111" priority="1" type="highway.service" numLanes="1" speed="5.56" shape="2012.55,1170.17 2011.83,1174.71 2009.67,1187.79" allow="pedestrian delivery bicycle"/>
    <edge id="-1066141968#1" from="9790490109" to="9790490110" priority="1" type="highway.service" numLanes="1" speed="5.56" allow="pedestrian delivery bicycle"/>
    <edge id="-1066141969" from="9790490124" to="9790490123" priority="1" type="highway.service" numLanes="1" speed="5.56" shape="2200.20,1011.65 2208.25,957.75 2210.67,947.05 2213.79,940.55 2216.53,937.70 2219.98,936.99 2327.04,956.98 2332.17,960.10 2334.55,964.41 2334.96,968.33 2327.47,1014.88 2325.68,1024.80 2324.47,1031.78" allow="pedestrian delivery bicycle"/>
    <edge id="-1066141970#0" from="9790490123" to="275865915" priority="1" type="highway.service" numLanes="1" speed="5.56" allow="pedestrian delivery bicycle"/>
    <edge id="-1066141970#1" from="9790490124" to="9790490123" priority="1" type="highway.service" numLanes="1" speed="5.56" shape="2200.20,1011.65 2318.67,1030.42 2324.47,1031.78" allow="pedestrian delivery bicycle"/>
    <edge id="-1066141971#0" from="9790490088" to="9790490133" priority="1" type="highway.service" numLanes="1" speed="5.56" shape="1854.95,1150.66 1862.09,1151.19 1866.70,1098.38 1867.30,1077.08 1868.91,1059.05" allow="pedestrian delivery bicycle"/>
    <edge id="-1066141971#1" from="9790490129" to="9790490088" priority="1" type="highway.service" numLanes="1" speed="5.56" shape="1814.74,1147.66 1818.07,1147.90 1837.45,1149.35 1846.64,1150.04 1854.95,1150.66" allow="pedestrian delivery bicycle"/>
    <edge id="-1066141977#0" from="9790490094" to="6426350623" priority="1" type="highway.service" numLanes="1" speed="5.56" allow="pedestrian delivery bicycle"/>
    <edge id="-1066141977#1" from="9790490092" to="9790490094" priority="1" type="highway.service" numLanes="1" speed="5.56" allow="pedestrian delivery bicycle"/>
    <edge id="-1066141977#2" from="9790490151" to="9790490092" priority="1" type="highway.service" numLanes="1" speed="5.56" allow="pedestrian delivery bicycle"/>
    <edge id="-1066159925" from="277363225" to="8201698341" priority="3" type="highway.residential" numLanes="1" speed="13.89" disallow="tram rail_urban rail rail_electric rail_fast ship"/>
    <edge id="-1068773733#0" from="1039071285" to="1039071749" priority="3" type="highway.residential" numLanes="1" speed="13.89" shape="3473.01,3166.00 3469.36,3177.17 3446.98,3198.27 3443.59,3203.16 3442.81,3207.69 3440.17,3251.13" disallow="tram rail_urban rail rail_electric rail_fast ship"/>
    <edge id="-1068773733#1" from="1039072249" to="1039071285" priority="3" type="highway.residential" numLanes="1" speed="13.89" disallow="tram rail_urban rail rail_electric rail_fast ship"/>
    <edge id="-1099608655#0" from="5527707917" to="276222217" priority="11" type="highway.secondary" numLanes="1" speed="13.89" disallow="tram rail_urban rail rail_electric rail_fast ship"/>
    <edge id="-1099608655#1" from="4318070065" to="5527707917" priority="11" type="highway.secondary" numLanes="1" speed="13.89" disallow="tram rail_urban rail rail_electric rail_fast ship"/>
    <edge id="-1099608655#2" from="4318070067" to="4318070065" priority="11" type="highway.secondary" numLanes="1" speed="13.89" disallow="tram rail_urban rail rail_electric rail_fast ship"/>
    <edge id="-1099608655#3" from="cluster_2902747611_2902747612" to="4318070067" priority="11" type="highway.secondary" numLanes="1" speed="13.89" shape="4642.95,1854.77 4614.15,1849.63 4602.44,1847.54" disallow="tram rail_urban rail rail_electric rail_fast ship"/>
    <edge id="-1099608655#4" from="cluster_1583654070_1583654079_2902747613_4318070068_#1more" to="cluster_2902747611_2902747612" priority="11" type="highway.secondary" numLanes="1" speed="13.89" shape="4718.11,1868.16 4648.92,1855.82 4642.95,1854.77" disallow="tram rail_urban rail rail_electric rail_fast ship"/>
    <edge id="-1099608655#5" from="1582765808" to="cluster_1583654070_1583654079_2902747613_4318070068_#1more" priority="11" type="highway.secondary" numLanes="1" speed="13.89" shape="4793.00,1881.50 4718.11,1868.16" disallow="tram rail_urban rail rail_electric rail_fast ship"/>
    <edge id="-1103126498#0" from="10094829071" to="cluster_10094829067_625202392" priority="1" type="highway.cycleway" numLanes="1" speed="5.56" shape="4198.12,1305.58 4163.37,1299.05" width="2.00" allow="bicycle"/>
    <edge id="-1103126498#1" from="cluster_10095463131_10095463132_5865853152" to="10094829071" priority="1" type="highway.cycleway" numLanes="1" speed="5.56" shape="4214.64,1309.10 4198.12,1305.58" width="2.00" allow="bicycle"/>