<?xml version="1.0" encoding="UTF-8"?>

<!-- generated on 2025-04-04 16:23:30 by Eclipse SUMO netconvert Version 1.19.0
<configuration xmlns:xsi="http://www.w3.org/2001/XMLSchema-instance" xsi:noNamespaceSchemaLocation="http://sumo.dlr.de/xsd/netconvertConfiguration.xsd">

    <input>
        <sumo-net-file value="fontainebleau/fontainebleau.net.xml"/>
    </input>

    <output>
        <plain-output-prefix value="fontainebleau/fontainebleau"/>
    </output>

    <processing>
        <geometry.min-radius.fix.railways value="false"/>
        <geometry.max-grade.fix value="false"/>
        <offset.disable-normalization value="true"/>
        <lefthand value="0"/>
    </processing>

    <tls_building>
        <tls.ignore-internal-junction-jam value="1"/>
    </tls_building>

    <junctions>
        <no-turnarounds value="true"/>
        <junctions.corner-detail value="5"/>
        <junctions.limit-turn-speed value="5.50"/>
        <rectangular-lane-cut value="0"/>
    </junctions>

    <pedestrian>
        <walkingareas value="0"/>
    </pedestrian>

</configuration>
-->

<tlLogics version="1.16" xmlns:xsi="http://www.w3.org/2001/XMLSchema-instance" xsi:noNamespaceSchemaLocation="http://sumo.dlr.de/xsd/tllogic_file.xsd">
    <tlLogic id="168836844" type="static" programID="0" offset="0">
        <phase duration="80" state="GggGGg"/>
        <phase duration="5"  state="yyyyyy"/>
        <phase duration="5"  state="rrrrrr"/>
    </tlLogic>
    <tlLogic id="432789994" type="static" programID="0" offset="0">
        <phase duration="39" state="rrGGGG"/>
        <phase duration="6"  state="rryyyy"/>
        <phase duration="39" state="GGrrrr"/>
        <phase duration="6"  state="yyrrrr"/>
    </tlLogic>
    <tlLogic id="48002039" type="static" programID="0" offset="0">
        <phase duration="39" state="GGrrGG"/>
        <phase duration="6"  state="yyrryy"/>
        <phase duration="39" state="rrGGrr"/>
        <phase duration="6"  state="rryyrr"/>
    </tlLogic>
    <tlLogic id="GS_159953203" type="static" programID="0" offset="0">
        <phase duration="27" state="GggrrrGGgrrr"/>
        <phase duration="3"  state="yyyrrryyyrrr"/>
        <phase duration="27" state="rrrGGgGrrrrr"/>
        <phase duration="3"  state="rrryyyyrrrrr"/>
        <phase duration="27" state="rrrrrrrrrGGG"/>
        <phase duration="3"  state="rrrrrrrrryyy"/>
    </tlLogic>
    <tlLogic id="GS_160325507" type="static" programID="0" offset="0">
        <phase duration="42" state="GggrrrGGg"/>
        <phase duration="3"  state="yyyrrryyy"/>
        <phase duration="42" state="rrrGGgGrr"/>
        <phase duration="3"  state="rrryyyyrr"/>
    </tlLogic>
    <tlLogic id="GS_cluster_10229345889_1883751089" type="static" programID="0" offset="0">
        <phase duration="42" state="rrrrGGGggrrrrGGGgg"/>
        <phase duration="3"  state="rrrryyyyyrrrryyyyy"/>
        <phase duration="42" state="GGggrrrrrGGggrrrrr"/>
        <phase duration="3"  state="yyyyrrrrryyyyrrrrr"/>
    </tlLogic>
    <tlLogic id="cluster_161497024_3326774064_473133468_7176792099_#1more" type="static" programID="0" offset="0">
        <phase duration="25" state="rrGGgrrGGg"/>
        <phase duration="3"  state="rryyyrryyy"/>
        <phase duration="27" state="rrrrrGGrrr"/>
        <phase duration="3"  state="rrrrryyrrr"/>
        <phase duration="1"  state="rrrrrrrrrr"/>
        <phase duration="27" state="GGrrrrrrrr"/>
        <phase duration="3"  state="yyrrrrrrrr"/>
        <phase duration="1"  state="rrrrrrrrrr"/>
    </tlLogic>
    <tlLogic id="cluster_168840952_5870059628_5870068087_7154925273_#2more" type="static" programID="0" offset="0">
        <phase duration="18" state="rrrrrrrrGGGgGrrr"/>
        <phase duration="3"  state="rrrrrrrryyyyyrrr"/>
        <phase duration="20" state="GGGgGrrrrrrrrrrr"/>
        <phase duration="3"  state="yyyyyrrrrrrrrrrr"/>
        <phase duration="20" state="GrrrrrrrrrrrGGGg"/>
        <phase duration="3"  state="yrrrrrrrrrrryyyy"/>
        <phase duration="20" state="rrrrGGGgGrrrrrrr"/>
        <phase duration="3"  state="rrrryyyyyrrrrrrr"/>
    </tlLogic>
    <tlLogic id="cluster_207146777_282874221_7831838178_7831838181_#6more" type="static" programID="0" offset="0">
        <phase duration="29" state="GGGrrrrrrGGGggrrrr"/>
        <phase duration="5"  state="yyyrrrrrryyyggrrrr"/>
        <phase duration="6"  state="rrrGGrrrrrrrGGrrrr"/>
        <phase duration="5"  state="rrryyrrrrrrryyrrrr"/>
        <phase duration="29" state="rrrrrGGggrrrrrGGgg"/>
        <phase duration="5"  state="rrrrryyggrrrrryygg"/>
        <phase duration="6"  state="rrrrrrrGGrrrrrrrGG"/>
        <phase duration="5"  state="rrrrrrryyrrrrrrryy"/>
    </tlLogic>
    <tlLogic id="cluster_282874222_48001979" type="static" programID="0" offset="0">
        <phase duration="38" state="GGggrrrrrGGggrrrr"/>
        <phase duration="3"  state="yyyyrrrrryyyyrrrr"/>
        <phase duration="37" state="rrrrGGGggrrrrGGgg"/>
        <phase duration="3"  state="rrrryyyggrrrryygg"/>
        <phase duration="6"  state="rrrrrrrGGrrrrrrGG"/>
        <phase duration="3"  state="rrrrrrryyrrrrrryy"/>
    </tlLogic>
    <tlLogic id="cluster_48001971_7567387948" type="static" programID="0" offset="0">
        <phase duration="41" state="GGgGggrrr"/>
        <phase duration="3"  state="yyyyyyrrr"/>
        <phase duration="1"  state="rrrrrrrrr"/>
        <phase duration="41" state="GrrrrrGGg"/>
        <phase duration="3"  state="yrrrrryyy"/>
        <phase duration="1"  state="rrrrrrrrr"/>
    </tlLogic>
    <tlLogic id="joinedS_2603097217_309250601_cluster_168837588_9894905068" type="static" programID="0" offset="0">
        <phase duration="10" state="GGrrrrrrGGrrrrGG"/>
        <phase duration="5"  state="yyrrrrrryyrrrryy"/>
        <phase duration="10" state="rrGGrrrrGGrrrrGG"/>
        <phase duration="5"  state="rryyrrrryyrrrryy"/>
        <phase duration="10" state="rrrrGGrrrrrrrrrr"/>
        <phase duration="5"  state="rrrryyrrrrrrrrrr"/>
        <phase duration="10" state="GrgrrrGGrrrrrrrr"/>
        <phase duration="5"  state="yryrrryyrrrrrrrr"/>
        <phase duration="10" state="rrrrrrrrrrGGrrrr"/>
        <phase duration="5"  state="rrrrrrrrrryyrrrr"/>
        <phase duration="10" state="rrrrrrrrGGrrGGrr"/>
        <phase duration="5"  state="rrrrrrrryyrryyrr"/>
    </tlLogic>
    <tlLogic id="joinedS_6711592346_6711592355_cluster_161351628_6711592352" type="static" programID="0" offset="0">
        <phase duration="40" state="GGGGGggGGggrrrr"/>
        <phase duration="5"  state="yyyyyyyyyyyrrrr"/>
        <phase duration="40" state="rGGGrrrrrrrGGGg"/>
        <phase duration="5"  state="ryyyrrrrrrryyyy"/>
    </tlLogic>
    <tlLogic id="joinedS_7603491225_7603491228_cluster_148955502_7603491222" type="static" programID="0" offset="0">
        <phase duration="13" state="GGrGGGGrrrrrrrrrrrr"/>
        <phase duration="5"  state="yyryyyyrrrrrrrrrrrr"/>
        <phase duration="13" state="rrGrrrrrrrrrrrrrrrr"/>
        <phase duration="5"  state="rryrrrrrrrrrrrrrrrr"/>
        <phase duration="13" state="rGrrrrrGGGGrrrrrrrr"/>
        <phase duration="5"  state="ryrrrrryyyyrrrrrrrr"/>
        <phase duration="13" state="rGrrrrrrrrrGGGGrrrr"/>
        <phase duration="5"  state="ryrrrrrrrrryyyyrrrr"/>
        <phase duration="13" state="rGrrrrrrrrrrrrrGGGG"/>
        <phase duration="5"  state="ryrrrrrrrrrrrrryyyy"/>
    </tlLogic>

    <connection from="-16083897#1" to="304496365#0" fromLane="0" toLane="0" tl="GS_159953203" linkIndex="3"/>
    <connection from="-16083897#1" to="-325893084#8" fromLane="0" toLane="0" tl="GS_159953203" linkIndex="4"/>
    <connection from="-16083897#1" to="16083897#0" fromLane="0" toLane="0" tl="GS_159953203" linkIndex="5"/>
    <connection from="-167979854#4" to="27627467#0" fromLane="0" toLane="0" tl="GS_160325507" linkIndex="6"/>
    <connection from="-167979854#4" to="-167979854#2" fromLane="0" toLane="0" tl="GS_160325507" linkIndex="7"/>
    <connection from="-167979854#4" to="167979854#3" fromLane="0" toLane="0" tl="GS_160325507" linkIndex="8"/>
    <connection from="-177978070#1" to="723378682#1" fromLane="0" toLane="0" tl="GS_cluster_10229345889_1883751089" linkIndex="0"/>
    <connection from="-177978070#1" to="-1118466752" fromLane="0" toLane="0" tl="GS_cluster_10229345889_1883751089" linkIndex="1"/>
    <connection from="-177978070#1" to="-177978056" fromLane="0" toLane="1" tl="GS_cluster_10229345889_1883751089" linkIndex="2"/>
    <connection from="-177978070#1" to="177978070#0" fromLane="0" toLane="0" tl="GS_cluster_10229345889_1883751089" linkIndex="3"/>
    <connection from="-26260420#0" to="842828715#0" fromLane="0" toLane="0" tl="joinedS_7603491225_7603491228_cluster_148955502_7603491222" linkIndex="7"/>
    <connection from="-26260420#0" to="-842828714#0" fromLane="0" toLane="0" tl="joinedS_7603491225_7603491228_cluster_148955502_7603491222" linkIndex="8"/>
    <connection from="-26260420#0" to="-222733615#1" fromLane="0" toLane="0" tl="joinedS_7603491225_7603491228_cluster_148955502_7603491222" linkIndex="9"/>
    <connection from="-26260420#0" to="26260420#0" fromLane="0" toLane="0" tl="joinedS_7603491225_7603491228_cluster_148955502_7603491222" linkIndex="10"/>
    <connection from="-27627467#1" to="-167979854#2" fromLane="0" toLane="0" tl="GS_160325507" linkIndex="3"/>
    <connection from="-27627467#1" to="167979854#3" fromLane="0" toLane="0" tl="GS_160325507" linkIndex="4"/>
    <connection from="-27627467#1" to="27627467#0" fromLane="0" toLane="0" tl="GS_160325507" linkIndex="5"/>
    <connection from="-304496365#1" to="-325893084#8" fromLane="0" toLane="0" tl="GS_159953203" linkIndex="0"/>
    <connection from="-304496365#1" to="16083897#0" fromLane="0" toLane="0" tl="GS_159953203" linkIndex="1"/>
    <connection from="-304496365#1" to="304496365#0" fromLane="0" toLane="0" tl="GS_159953203" linkIndex="2"/>
    <connection from="-314788612#0" to="-422528817#2" fromLane="0" toLane="0" tl="joinedS_6711592346_6711592355_cluster_161351628_6711592352" linkIndex="3"/>
    <connection from="-314788612#0" to="-26300659#4" fromLane="0" toLane="0" tl="joinedS_6711592346_6711592355_cluster_161351628_6711592352" linkIndex="4"/>
    <connection from="-314788612#0" to="26260396#0" fromLane="0" toLane="0" tl="joinedS_6711592346_6711592355_cluster_161351628_6711592352" linkIndex="5"/>
    <connection from="-314788612#0" to="314788612#0" fromLane="0" toLane="0" tl="joinedS_6711592346_6711592355_cluster_161351628_6711592352" linkIndex="6"/>
    <connection from="-314788612#1" to="-314788612#0" fromLane="0" toLane="0" tl="joinedS_6711592346_6711592355_cluster_161351628_6711592352" linkIndex="0"/>
    <connection from="-326043291#0" to="-696904626" fromLane="0" toLane="0" tl="joinedS_2603097217_309250601_cluster_168837588_9894905068" linkIndex="4"/>
    <connection from="-326043291#0" to="326043291#0" fromLane="0" toLane="0" tl="joinedS_2603097217_309250601_cluster_168837588_9894905068" linkIndex="5"/>
    <connection from="-340426164#1" to="-932524744#3" fromLane="0" toLane="0" tl="cluster_48001971_7567387948" linkIndex="0"/>
    <connection from="-340426164#1" to="-932524741#2" fromLane="0" toLane="0" tl="cluster_48001971_7567387948" linkIndex="1"/>
    <connection from="-340426164#1" to="340426164#1" fromLane="0" toLane="0" tl="cluster_48001971_7567387948" linkIndex="2"/>
    <connection from="-572534334" to="-314788169" fromLane="0" toLane="0" tl="cluster_161497024_3326774064_473133468_7176792099_#1more" linkIndex="7"/>
    <connection from="-572534334" to="-314788169" fromLane="1" toLane="1" tl="cluster_161497024_3326774064_473133468_7176792099_#1more" linkIndex="8"/>
    <connection from="-572534334" to="572534334" fromLane="1" toLane="1" tl="cluster_161497024_3326774064_473133468_7176792099_#1more" linkIndex="9"/>
    <connection from="-621396859#2" to="28155192" fromLane="0" toLane="0" tl="joinedS_2603097217_309250601_cluster_168837588_9894905068" linkIndex="12"/>
    <connection from="-621396859#2" to="621396859#1" fromLane="0" toLane="0" tl="joinedS_2603097217_309250601_cluster_168837588_9894905068" linkIndex="13"/>
    <connection from="-696904627" to="-34083469#18" fromLane="0" toLane="0" tl="168836844" linkIndex="0"/>
    <connection from="-696904627" to="552180898" fromLane="0" toLane="0" tl="168836844" linkIndex="1"/>
    <connection from="-696904627" to="696904627" fromLane="0" toLane="0" tl="168836844" linkIndex="2"/>
    <connection from="-723378682#2" to="-1118466752" fromLane="0" toLane="0" tl="GS_cluster_10229345889_1883751089" linkIndex="13"/>
    <connection from="-723378682#2" to="-177978056" fromLane="0" toLane="0" tl="GS_cluster_10229345889_1883751089" linkIndex="14"/>
    <connection from="-723378682#2" to="-177978056" fromLane="1" toLane="1" tl="GS_cluster_10229345889_1883751089" linkIndex="15"/>
    <connection from="-723378682#2" to="177978070#0" fromLane="1" toLane="0" tl="GS_cluster_10229345889_1883751089" linkIndex="16"/>
    <connection from="-723378682#2" to="723378682#1" fromLane="1" toLane="1" tl="GS_cluster_10229345889_1883751089" linkIndex="17"/>
    <connection from="-80345468" to="-132757130" fromLane="0" toLane="0" tl="432789994" linkIndex="2"/>
    <connection from="-80345468" to="-132757130" fromLane="1" toLane="1" tl="432789994" linkIndex="3"/>
    <connection from="-842094857#1" to="-26300661#0" fromLane="0" toLane="0" tl="cluster_168840952_5870059628_5870068087_7154925273_#2more" linkIndex="4"/>
    <connection from="-842094857#1" to="842511300#10" fromLane="0" toLane="0" tl="cluster_168840952_5870059628_5870068087_7154925273_#2more" linkIndex="5"/>
    <connection from="-842094857#1" to="-842511300#8" fromLane="0" toLane="0" tl="cluster_168840952_5870059628_5870068087_7154925273_#2more" linkIndex="6"/>
    <connection from="-842094857#1" to="842094857#1" fromLane="0" toLane="0" tl="cluster_168840952_5870059628_5870068087_7154925273_#2more" linkIndex="7"/>
    <connection from="-842511300#0" to="25932453#0" fromLane="0" toLane="0" tl="cluster_282874222_48001979" linkIndex="0"/>
    <connection from="-842511300#0" to="-340426164#3" fromLane="0" toLane="0" tl="cluster_282874222_48001979" linkIndex="1"/>
    <connection from="-842511300#0" to="-572528502#7" fromLane="0" toLane="0" tl="cluster_282874222_48001979" linkIndex="2"/>
    <connection from="-842511300#0" to="842511300#0" fromLane="0" toLane="0" tl="cluster_282874222_48001979" linkIndex="3"/>
    <connection from="-842511300#10" to="-842511300#8" fromLane="0" toLane="0" tl="cluster_168840952_5870059628_5870068087_7154925273_#2more" linkIndex="12"/>
    <connection from="-842511300#10" to="842094857#1" fromLane="0" toLane="0" tl="cluster_168840952_5870059628_5870068087_7154925273_#2more" linkIndex="13"/>
    <connection from="-842511300#10" to="-26300661#0" fromLane="0" toLane="0" tl="cluster_168840952_5870059628_5870068087_7154925273_#2more" linkIndex="14"/>
    <connection from="-842511300#10" to="842511300#10" fromLane="0" toLane="0" tl="cluster_168840952_5870059628_5870068087_7154925273_#2more" linkIndex="15"/>
    <connection from="-842828715#0" to="-842828714#0" fromLane="0" toLane="0" tl="joinedS_7603491225_7603491228_cluster_148955502_7603491222" linkIndex="3"/>
    <connection from="-842828715#0" to="-222733615#1" fromLane="0" toLane="0" tl="joinedS_7603491225_7603491228_cluster_148955502_7603491222" linkIndex="4"/>
    <connection from="-842828715#0" to="26260420#0" fromLane="0" toLane="0" tl="joinedS_7603491225_7603491228_cluster_148955502_7603491222" linkIndex="5"/>
    <connection from="-842828715#0" to="842828715#0" fromLane="0" toLane="0" tl="joinedS_7603491225_7603491228_cluster_148955502_7603491222" linkIndex="6"/>
    <connection from="-842828715#1" to="-842828715#0" fromLane="0" toLane="0" tl="joinedS_7603491225_7603491228_cluster_148955502_7603491222" linkIndex="0"/>
    <connection from="1118466752" to="-177978056" fromLane="0" toLane="0" tl="GS_cluster_10229345889_1883751089" linkIndex="9"/>
    <connection from="1118466752" to="177978070#0" fromLane="0" toLane="0" tl="GS_cluster_10229345889_1883751089" linkIndex="10"/>
    <connection from="1118466752" to="723378682#1" fromLane="0" toLane="1" tl="GS_cluster_10229345889_1883751089" linkIndex="11"/>
    <connection from="1118466752" to="-1118466752" fromLane="0" toLane="0" tl="GS_cluster_10229345889_1883751089" linkIndex="12"/>
    <connection from="132757130" to="80345468" fromLane="0" toLane="0" tl="432789994" linkIndex="4"/>
    <connection from="132757130" to="80345468" fromLane="1" toLane="1" tl="432789994" linkIndex="5"/>
    <connection from="16379498" to="621396859#1" fromLane="0" toLane="0" tl="joinedS_2603097217_309250601_cluster_168837588_9894905068" linkIndex="14"/>
    <connection from="16379498" to="28155192" fromLane="0" toLane="0" tl="joinedS_2603097217_309250601_cluster_168837588_9894905068" linkIndex="15"/>
    <connection from="167979854#1" to="167979854#3" fromLane="0" toLane="0" tl="GS_160325507" linkIndex="0"/>
    <connection from="167979854#1" to="27627467#0" fromLane="0" toLane="0" tl="GS_160325507" linkIndex="1"/>
    <connection from="167979854#1" to="-167979854#2" fromLane="0" toLane="0" tl="GS_160325507" linkIndex="2"/>
    <connection from="172828111#0" to="172828111#1" fromLane="0" toLane="0" tl="joinedS_7603491225_7603491228_cluster_148955502_7603491222" linkIndex="2"/>
    <connection from="177978056" to="177978070#0" fromLane="0" toLane="0" tl="GS_cluster_10229345889_1883751089" linkIndex="4"/>
    <connection from="177978056" to="723378682#1" fromLane="0" toLane="0" tl="GS_cluster_10229345889_1883751089" linkIndex="5"/>
    <connection from="177978056" to="723378682#1" fromLane="1" toLane="1" tl="GS_cluster_10229345889_1883751089" linkIndex="6"/>
    <connection from="177978056" to="-1118466752" fromLane="1" toLane="0" tl="GS_cluster_10229345889_1883751089" linkIndex="7"/>
    <connection from="177978056" to="-177978056" fromLane="1" toLane="1" tl="GS_cluster_10229345889_1883751089" linkIndex="8"/>
    <connection from="222733615#1" to="26260420#0" fromLane="0" toLane="0" tl="joinedS_7603491225_7603491228_cluster_148955502_7603491222" linkIndex="11"/>
    <connection from="222733615#1" to="842828715#0" fromLane="0" toLane="0" tl="joinedS_7603491225_7603491228_cluster_148955502_7603491222" linkIndex="12"/>
    <connection from="222733615#1" to="-842828714#0" fromLane="0" toLane="0" tl="joinedS_7603491225_7603491228_cluster_148955502_7603491222" linkIndex="13"/>
    <connection from="222733615#1" to="-222733615#1" fromLane="0" toLane="0" tl="joinedS_7603491225_7603491228_cluster_148955502_7603491222" linkIndex="14"/>
    <connection from="25932453#9" to="991911522#1" fromLane="0" toLane="0" tl="cluster_207146777_282874221_7831838178_7831838181_#6more" linkIndex="9"/>
    <connection from="25932453#9" to="658105324" fromLane="0" toLane="0" tl="cluster_207146777_282874221_7831838178_7831838181_#6more" linkIndex="10"/>
    <connection from="25932453#9" to="658105324" fromLane="1" toLane="1" tl="cluster_207146777_282874221_7831838178_7831838181_#6more" linkIndex="11"/>
    <connection from="25932453#9" to="948159675#1" fromLane="1" toLane="0" tl="cluster_207146777_282874221_7831838178_7831838181_#6more" linkIndex="12"/>
    <connection from="25932453#9" to="26260422#1" fromLane="1" toLane="1" tl="cluster_207146777_282874221_7831838178_7831838181_#6more" linkIndex="13"/>
    <connection from="26260396#0" to="26260396#1" fromLane="0" toLane="0" tl="joinedS_6711592346_6711592355_cluster_161351628_6711592352" linkIndex="2"/>
    <connection from="26260422#7" to="-340426164#3" fromLane="0" toLane="0" tl="cluster_282874222_48001979" linkIndex="13"/>
    <connection from="26260422#7" to="-572528502#7" fromLane="0" toLane="0" tl="cluster_282874222_48001979" linkIndex="14"/>
    <connection from="26260422#7" to="842511300#0" fromLane="1" toLane="0" tl="cluster_282874222_48001979" linkIndex="15"/>
    <connection from="26260422#7" to="25932453#0" fromLane="1" toLane="1" tl="cluster_282874222_48001979" linkIndex="16"/>
    <connection from="26300659#4" to="26260396#0" fromLane="0" toLane="0" tl="joinedS_6711592346_6711592355_cluster_161351628_6711592352" linkIndex="7"/>
    <connection from="26300659#4" to="314788612#0" fromLane="0" toLane="0" tl="joinedS_6711592346_6711592355_cluster_161351628_6711592352" linkIndex="8"/>
    <connection from="26300659#4" to="-422528817#2" fromLane="0" toLane="0" tl="joinedS_6711592346_6711592355_cluster_161351628_6711592352" linkIndex="9"/>
    <connection from="26300659#4" to="-26300659#4" fromLane="0" toLane="0" tl="joinedS_6711592346_6711592355_cluster_161351628_6711592352" linkIndex="10"/>
    <connection from="26300661#0" to="842511300#10" fromLane="0" toLane="0" tl="cluster_168840952_5870059628_5870068087_7154925273_#2more" linkIndex="0"/>
    <connection from="26300661#0" to="-842511300#8" fromLane="0" toLane="0" tl="cluster_168840952_5870059628_5870068087_7154925273_#2more" linkIndex="1"/>
    <connection from="26300661#0" to="842094857#1" fromLane="0" toLane="0" tl="cluster_168840952_5870059628_5870068087_7154925273_#2more" linkIndex="2"/>
    <connection from="26300661#0" to="-26300661#0" fromLane="0" toLane="0" tl="cluster_168840952_5870059628_5870068087_7154925273_#2more" linkIndex="3"/>
    <connection from="27471697#0" to="27471697#1" fromLane="0" toLane="0" tl="2844445691" linkIndex="0"/>
    <connection from="27471697#1" to="27471697#2" fromLane="0" toLane="0" tl="11171661033" linkIndex="0"/>
    <connection from="27471697#2" to="577952444#1" fromLane="0" toLane="0" tl="11171661023" linkIndex="0"/>
    <connection from="279550629" to="552180900#0" fromLane="0" toLane="0" tl="joinedS_2603097217_309250601_cluster_168837588_9894905068" linkIndex="2"/>
    <connection from="279550629" to="16379498" fromLane="0" toLane="0" tl="joinedS_2603097217_309250601_cluster_168837588_9894905068" linkIndex="3"/>
    <connection from="28155192" to="326043291#0" fromLane="0" toLane="0" tl="joinedS_2603097217_309250601_cluster_168837588_9894905068" linkIndex="8"/>
    <connection from="28155192" to="-696904626" fromLane="0" toLane="0" tl="joinedS_2603097217_309250601_cluster_168837588_9894905068" linkIndex="9"/>
    <connection from="314788168" to="-80345468" fromLane="0" toLane="0" tl="48002039" linkIndex="0"/>
    <connection from="314788168" to="-80345468" fromLane="1" toLane="1" tl="48002039" linkIndex="1"/>
    <connection from="314788169" to="572534334" fromLane="0" toLane="0" tl="cluster_161497024_3326774064_473133468_7176792099_#1more" linkIndex="2"/>
    <connection from="314788169" to="572534334" fromLane="1" toLane="1" tl="cluster_161497024_3326774064_473133468_7176792099_#1more" linkIndex="3"/>
    <connection from="314788169" to="-314788169" fromLane="1" toLane="1" tl="cluster_161497024_3326774064_473133468_7176792099_#1more" linkIndex="4"/>
    <connection from="314788612#0" to="314788612#1" fromLane="0" toLane="0" tl="joinedS_6711592346_6711592355_cluster_161351628_6711592352" linkIndex="1"/>
    <connection from="325893084#7" to="16083897#0" fromLane="0" toLane="0" tl="GS_159953203" linkIndex="6"/>
    <connection from="325893084#7" to="304496365#0" fromLane="0" toLane="0" tl="GS_159953203" linkIndex="7"/>
    <connection from="325893084#7" to="-325893084#8" fromLane="0" toLane="0" tl="GS_159953203" linkIndex="8"/>
    <connection from="340426164#3" to="-572528502#7" fromLane="0" toLane="0" tl="cluster_282874222_48001979" linkIndex="9"/>
    <connection from="340426164#3" to="842511300#0" fromLane="0" toLane="0" tl="cluster_282874222_48001979" linkIndex="10"/>
    <connection from="340426164#3" to="25932453#0" fromLane="0" toLane="1" tl="cluster_282874222_48001979" linkIndex="11"/>
    <connection from="340426164#3" to="-340426164#3" fromLane="0" toLane="0" tl="cluster_282874222_48001979" linkIndex="12"/>
    <connection from="34083469#18" to="552180898" fromLane="0" toLane="0" tl="168836844" linkIndex="3"/>
    <connection from="34083469#18" to="696904627" fromLane="0" toLane="0" tl="168836844" linkIndex="4"/>
    <connection from="34083469#18" to="-34083469#18" fromLane="0" toLane="0" tl="168836844" linkIndex="5"/>
    <connection from="39498053#2" to="-314788169" fromLane="0" toLane="0" tl="cluster_161497024_3326774064_473133468_7176792099_#1more" linkIndex="5"/>
    <connection from="39498053#2" to="572534334" fromLane="0" toLane="1" tl="cluster_161497024_3326774064_473133468_7176792099_#1more" linkIndex="6"/>
    <connection from="422528817#1" to="-26300659#4" fromLane="0" toLane="0" tl="joinedS_6711592346_6711592355_cluster_161351628_6711592352" linkIndex="11"/>
    <connection from="422528817#1" to="26260396#0" fromLane="0" toLane="0" tl="joinedS_6711592346_6711592355_cluster_161351628_6711592352" linkIndex="12"/>
    <connection from="422528817#1" to="314788612#0" fromLane="0" toLane="0" tl="joinedS_6711592346_6711592355_cluster_161351628_6711592352" linkIndex="13"/>
    <connection from="422528817#1" to="-422528817#2" fromLane="0" toLane="0" tl="joinedS_6711592346_6711592355_cluster_161351628_6711592352" linkIndex="14"/>
    <connection from="432366171#1" to="432366171#2" fromLane="0" toLane="0" tl="11171966059" linkIndex="0"/>
    <connection from="432366171#2" to="432366171#3" fromLane="0" toLane="0" tl="2626068949" linkIndex="0"/>
    <connection from="552180898" to="552180900#0" fromLane="0" toLane="0" tl="joinedS_2603097217_309250601_cluster_168837588_9894905068" linkIndex="0"/>
    <connection from="552180898" to="16379498" fromLane="0" toLane="0" tl="joinedS_2603097217_309250601_cluster_168837588_9894905068" linkIndex="1"/>
    <connection from="552180899#1" to="326043291#0" fromLane="0" toLane="0" tl="joinedS_2603097217_309250601_cluster_168837588_9894905068" linkIndex="6"/>
    <connection from="552180899#1" to="-696904626" fromLane="0" toLane="0" tl="joinedS_2603097217_309250601_cluster_168837588_9894905068" linkIndex="7"/>
    <connection from="572528502#7" to="842511300#0" fromLane="0" toLane="0" tl="cluster_282874222_48001979" linkIndex="4"/>
    <connection from="572528502#7" to="25932453#0" fromLane="0" toLane="0" tl="cluster_282874222_48001979" linkIndex="5"/>
    <connection from="572528502#7" to="25932453#0" fromLane="0" toLane="1" tl="cluster_282874222_48001979" linkIndex="6"/>
    <connection from="572528502#7" to="-340426164#3" fromLane="0" toLane="0" tl="cluster_282874222_48001979" linkIndex="7"/>
    <connection from="572528502#7" to="-572528502#7" fromLane="0" toLane="0" tl="cluster_282874222_48001979" linkIndex="8"/>
    <connection from="577952444#1" to="577952439#1" fromLane="0" toLane="0" tl="11171661022" linkIndex="0"/>
    <connection from="598754089#0" to="948159675#1" fromLane="0" toLane="0" tl="cluster_207146777_282874221_7831838178_7831838181_#6more" linkIndex="0"/>
    <connection from="598754089#0" to="26260422#1" fromLane="0" toLane="0" tl="cluster_207146777_282874221_7831838178_7831838181_#6more" linkIndex="1"/>
    <connection from="598754089#0" to="26260422#1" fromLane="1" toLane="1" tl="cluster_207146777_282874221_7831838178_7831838181_#6more" linkIndex="2"/>
    <connection from="598754089#0" to="991911522#1" fromLane="2" toLane="0" tl="cluster_207146777_282874221_7831838178_7831838181_#6more" linkIndex="3"/>
    <connection from="598754089#0" to="658105324" fromLane="2" toLane="1" tl="cluster_207146777_282874221_7831838178_7831838181_#6more" linkIndex="4"/>
    <connection from="696904626" to="326043291#0" fromLane="0" toLane="0" tl="joinedS_2603097217_309250601_cluster_168837588_9894905068" linkIndex="10"/>
    <connection from="696904626" to="-696904626" fromLane="0" toLane="0" tl="joinedS_2603097217_309250601_cluster_168837588_9894905068" linkIndex="11"/>
    <connection from="80345468" to="-478323866" fromLane="0" toLane="0" tl="48002039" linkIndex="4"/>
    <connection from="80345468" to="-478323866" fromLane="1" toLane="1" tl="48002039" linkIndex="5"/>
    <connection from="82363101#4" to="-325893084#8" fromLane="0" toLane="0" tl="GS_159953203" linkIndex="9"/>
    <connection from="82363101#4" to="16083897#0" fromLane="0" toLane="0" tl="GS_159953203" linkIndex="10"/>
    <connection from="82363101#4" to="304496365#0" fromLane="0" toLane="0" tl="GS_159953203" linkIndex="11"/>
    <connection from="842511300#8" to="842094857#1" fromLane="0" toLane="0" tl="cluster_168840952_5870059628_5870068087_7154925273_#2more" linkIndex="8"/>
    <connection from="842511300#8" to="-26300661#0" fromLane="0" toLane="0" tl="cluster_168840952_5870059628_5870068087_7154925273_#2more" linkIndex="9"/>
    <connection from="842511300#8" to="842511300#10" fromLane="0" toLane="0" tl="cluster_168840952_5870059628_5870068087_7154925273_#2more" linkIndex="10"/>
    <connection from="842511300#8" to="-842511300#8" fromLane="0" toLane="0" tl="cluster_168840952_5870059628_5870068087_7154925273_#2more" linkIndex="11"/>
    <connection from="842828714#0" to="-222733615#1" fromLane="0" toLane="0" tl="joinedS_7603491225_7603491228_cluster_148955502_7603491222" linkIndex="15"/>
    <connection from="842828714#0" to="26260420#0" fromLane="0" toLane="0" tl="joinedS_7603491225_7603491228_cluster_148955502_7603491222" linkIndex="16"/>
    <connection from="842828714#0" to="842828715#0" fromLane="0" toLane="0" tl="joinedS_7603491225_7603491228_cluster_148955502_7603491222" linkIndex="17"/>
    <connection from="842828714#0" to="-842828714#0" fromLane="0" toLane="0" tl="joinedS_7603491225_7603491228_cluster_148955502_7603491222" linkIndex="18"/>
    <connection from="842828715#0" to="842828715#1" fromLane="0" toLane="0" tl="joinedS_7603491225_7603491228_cluster_148955502_7603491222" linkIndex="1"/>
    <connection from="843257119" to="940591932" fromLane="0" toLane="0" tl="432789994" linkIndex="0"/>
    <connection from="843257119" to="940591932" fromLane="1" toLane="1" tl="432789994" linkIndex="1"/>