<?xml version="1.0" encoding="UTF-8"?>

<!-- generated on 2025-04-04 16:23:30 by Eclipse SUMO netconvert Version 1.19.0
<configuration xmlns:xsi="http://www.w3.org/2001/XMLSchema-instance" xsi:noNamespaceSchemaLocation="http://sumo.dlr.de/xsd/netconvertConfiguration.xsd">

    <input>
        <sumo-net-file value="fontainebleau/fontainebleau.net.xml"/>
    </input>

    <output>
        <plain-output-prefix value="fontainebleau/fontainebleau"/>
    </output>

    <processing>
        <geometry.min-radius.fix.railways value="false"/>
        <geometry.max-grade.fix value="false"/>
        <offset.disable-normalization value="true"/>
        <lefthand value="0"/>
    </processing>

    <tls_building>
        <tls.ignore-internal-junction-jam value="1"/>
    </tls_building>

    <junctions>
        <no-turnarounds value="true"/>
        <junctions.corner-detail value="5"/>
        <junctions.limit-turn-speed value="5.50"/>
        <rectangular-lane-cut value="0"/>
    </junctions>

    <pedestrian>
        <walkingareas value="0"/>
    </pedestrian>

</configuration>
-->

<edges version="1.16" xmlns:xsi="http://www.w3.org/2001/XMLSchema-instance" xsi:noNamespaceSchemaLocation="http://sumo.dlr.de/xsd/edges_file.xsd">
    <location netOffset="-476116.32,-5357666.89" convBoundary="0.00,-1.47,6425.84,7961.83" origBoundary="2.677156,48.371753,2.764116,48.443455" projParameter="+proj=utm +zone=31 +ellps=WGS84 +datum=WGS84 +units=m +no_defs"/>

    <edge id="-1007622931" from="9296027562" to="9296027560" priority="1" type="highway.service" numLanes="1" speed="5.56" shape="1403.28,4108.95 1427.52,4125.45 1422.00,4133.39" allow="pedestrian delivery bicycle"/>
    <edge id="-101539949" from="1017857187" to="cluster_1708934856_1708936615" priority="1" type="highway.path" numLanes="1" speed="5.56" shape="2061.11,3528.73 2068.81,3526.53" width="2.00" allow="pedestrian bicycle"/>
    <edge id="-102015880#0" from="10135224332" to="1177670881" priority="1" type="highway.path" numLanes="1" speed="5.56" width="2.00" allow="pedestrian bicycle"/>
    <edge id="-102015880#1" from="472320078" to="10135224332" priority="1" type="highway.path" numLanes="1" speed="5.56" shape="2961.77,4467.93 2963.96,4474.36 2964.51,4475.87" width="2.00" allow="pedestrian bicycle"/>
    <edge id="-102015882#0" from="10135224334" to="2854011838" priority="10" type="highway.tertiary" numLanes="1" speed="8.33" disallow="tram rail_urban rail rail_electric rail_fast ship"/>
    <edge id="-102015882#1" from="207146561" to="10135224334" priority="10" type="highway.tertiary" numLanes="1" speed="8.33" shape="3091.85,4233.49 2974.85,4466.64 2973.54,4471.26 2973.04,4473.47 2972.76,4474.69" disallow="tram rail_urban rail rail_electric rail_fast ship"/>
    <edge id="-102015882#2" from="9733115858" to="207146561" priority="10" type="highway.tertiary" numLanes="1" speed="8.33" disallow="tram rail_urban rail rail_electric rail_fast ship"/>
    <edge id="-102015882#3" from="472320072" to="9733115858" priority="10" type="highway.tertiary" numLanes="1" speed="8.33" disallow="tram rail_urban rail rail_electric rail_fast ship"/>
    <edge id="-102015882#4" from="5338546424" to="472320072" priority="10" type="highway.tertiary" numLanes="1" speed="8.33" disallow="tram rail_urban rail rail_electric rail_fast ship"/>
    <edge id="-102565156#0" from="2294646084" to="7851432235" priority="1" type="highway.path" numLanes="1" speed="5.56" width="2.00" allow="pedestrian bicycle"/>
    <edge id="-102565156#1" from="1184455639" to="2294646084" priority="1" type="highway.path" numLanes="1" speed="5.56" width="2.00" allow="pedestrian bicycle"/>
    <edge id="-1034094730" from="cluster_7567387907_7856312337" to="10259276946" priority="1" type="highway.service" numLanes="1" speed="5.56" shape="1500.22,3679.74 1497.80,3675.74 1486.08,3659.34 1482.49,3654.21 1481.08,3652.40" allow="pedestrian delivery bicycle"/>
    <edge id="-1034422403#0" from="9529323068" to="9529323067" priority="1" type="highway.service" numLanes="1" speed="5.56" allow="pedestrian delivery bicycle"/>
    <edge id="-1034422403#1" from="9529323065" to="9529323068" priority="1" type="highway.service" numLanes="1" speed="5.56" allow="pedestrian delivery bicycle"/>
    <edge id="-1034422405#0" from="9529323073" to="9529323074" priority="1" type="highway.service" numLanes="1" speed="5.56" allow="pedestrian delivery bicycle"/>
    <edge id="-1034422405#1" from="9529323075" to="9529323073" priority="1" type="highway.service" numLanes="1" speed="5.56" allow="pedestrian delivery bicycle"/>
    <edge id="-104137208" from="938586578" to="938586627" priority="1" type="highway.path" numLanes="1" speed="5.56" width="2.00" allow="pedestrian bicycle"/>
    <edge id="-104137214" from="1201631494" to="938586578" priority="1" type="highway.track" numLanes="1" speed="5.56" shape="4296.32,2962.75 4300.43,2968.95 4311.98,2984.93 4316.12,2990.34 4319.38,2991.70" allow="pedestrian motorcycle moped bicycle"/>
    <edge id="-104137226" from="2293991286" to="1201631494" priority="1" type="highway.path" numLanes="1" speed="5.56" shape="4726.96,2732.76 4663.98,2756.86 4558.39,2811.31 4507.64,2837.06 4413.94,2887.25 4357.33,2923.89 4296.32,2962.75" width="2.00" allow="pedestrian bicycle"/>
    <edge id="-1041459576#0" from="7261906126" to="162589500" priority="1" type="highway.service" numLanes="1" speed="5.56" allow="pedestrian delivery bicycle"/>
    <edge id="-1041459576#1" from="162596167" to="7261906126" priority="1" type="highway.service" numLanes="1" speed="5.56" allow="pedestrian delivery bicycle"/>
    <edge id="-104149331" from="1201784066" to="cluster_1201784206_2313978210" priority="1" type="highway.path" numLanes="1" speed="5.56" shape="861.72,3062.23 739.57,3034.49" width="2.00" allow="pedestrian bicycle"/>
    <edge id="-104149350#0" from="616863181" to="567174514" priority="1" type="highway.track" numLanes="1" speed="5.56" shape="569.94,4248.04 540.52,4242.35 454.31,4214.75 348.48,4180.88" allow="pedestrian motorcycle moped bicycle"/>
    <edge id="-104149350#1" from="1201784016" to="616863181" priority="1" type="highway.track" numLanes="1" speed="5.56" allow="pedestrian motorcycle moped bicycle"/>
    <edge id="-104149350#2" from="616863183" to="1201784016" priority="1" type="highway.track" numLanes="1" speed="5.56" allow="pedestrian motorcycle moped bicycle"/>
    <edge id="-104149352#0" from="2293091333" to="241927589" priority="1" type="highway.service" numLanes="1" speed="5.56" shape="4446.91,5964.68 4411.99,5972.55 4346.25,5952.92 4307.39,5934.26" allow="pedestrian delivery bicycle"/>
    <edge id="-104149352#1" from="1201784445" to="2293091333" priority="1" type="highway.service" numLanes="1" speed="5.56" shape="4502.48,5910.13 4504.40,5937.96 4470.24,5959.42 4446.91,5964.68" allow="pedestrian delivery bicycle"/>
    <edge id="-104149352#2" from="3298573773" to="1201784445" priority="1" type="highway.service" numLanes="1" speed="5.56" allow="pedestrian delivery bicycle"/>
    <edge id="-104149361#0" from="2848210538" to="10229351605" priority="1" type="highway.path" numLanes="1" speed="5.56" shape="762.63,3200.79 760.87,3199.08 741.54,3187.39 738.69,3185.77" width="2.00" allow="pedestrian bicycle"/>
    <edge id="-104149361#1" from="7589529794" to="2848210538" priority="1" type="highway.path" numLanes="1" speed="5.56" width="2.00" allow="pedestrian bicycle"/>
    <edge id="-104149361#2" from="161496417" to="7589529794" priority="1" type="highway.path" numLanes="1" speed="5.56" width="2.00" allow="pedestrian bicycle"/>
    <edge id="-104149366#0" from="619133084" to="1201783988" priority="1" type="highway.track" numLanes="1" speed="5.56" allow="pedestrian motorcycle moped bicycle"/>
    <edge id="-104149366#1" from="1201784016" to="619133084" priority="1" type="highway.track" numLanes="1" speed="5.56" allow="pedestrian motorcycle moped bicycle"/>
    <edge id="-104149366#2" from="1486958663" to="1201784016" priority="1" type="highway.track" numLanes="1" speed="5.56" shape="738.20,4450.07 779.10,4406.37 834.47,4356.28 887.57,4309.32" allow="pedestrian motorcycle moped bicycle"/>
    <edge id="-1052926846" from="9296027565" to="9296027563" priority="1" type="highway.service" numLanes="1" speed="5.56" shape="1453.44,4134.87 1470.33,4146.15 1488.98,4156.47 1468.06,4188.22" allow="pedestrian delivery bicycle"/>
    <edge id="-1054818479#0" from="9692930825" to="9692930822" priority="1" type="highway.track" numLanes="1" speed="5.56" shape="3541.32,5241.33 3524.47,5245.29 3509.54,5251.52 3501.79,5264.30" allow="pedestrian motorcycle moped bicycle"/>
    <edge id="-1054818479#1" from="9692930830" to="9692930825" priority="1" type="highway.track" numLanes="1" speed="5.56" shape="3608.25,5240.60 3600.33,5226.54 3596.34,5225.51 3589.76,5224.98 3584.18,5226.05 3541.32,5241.33" allow="pedestrian motorcycle moped bicycle"/>
    <edge id="-1054823954#0" from="9692940503" to="9692940500" priority="1" type="highway.path" numLanes="1" speed="5.56" shape="3033.11,5427.50 3034.41,5431.64 3030.31,5452.17" width="2.00" allow="pedestrian bicycle"/>
    <edge id="-1054823954#1" from="9692940506" to="9692940503" priority="1" type="highway.path" numLanes="1" speed="5.56" shape="2949.64,5353.23 2994.72,5367.71 3021.96,5400.22 3033.11,5427.50" width="2.00" allow="pedestrian bicycle"/>
    <edge id="-1054869047#0" from="2835390066" to="9693278166" priority="1" type="highway.path" numLanes="1" speed="5.56" shape="2284.69,5064.68 2277.44,5051.93 2271.66,5044.59 2266.10,5038.98 2253.19,5025.95" width="2.00" allow="pedestrian bicycle"/>
    <edge id="-1054869047#1" from="9693278170" to="2835390066" priority="1" type="highway.path" numLanes="1" speed="5.56" width="2.00" allow="pedestrian bicycle"/>
    <edge id="-1054869047#2" from="9693278175" to="9693278170" priority="1" type="highway.path" numLanes="1" speed="5.56" shape="2350.48,5182.93 2337.92,5158.08 2333.26,5152.50 2329.09,5136.78 2319.72,5119.34 2306.07,5106.15 2297.75,5095.97 2293.67,5087.88" width="2.00" allow="pedestrian bicycle"/>
    <edge id="-1054869048" from="9693278183" to="9693278182" priority="1" type="highway.path" numLanes="1" speed="5.56" shape="2236.30,5067.17 2238.56,5066.69 2239.21,5069.79 2241.28,5069.27" width="2.00" allow="pedestrian bicycle"/>
    <edge id="-1054876785" from="9693357450" to="9693357447" priority="1" type="highway.path" numLanes="1" speed="5.56" shape="2966.18,5033.96 2962.12,5026.06 2951.47,5019.39" width="2.00" allow="pedestrian bicycle"/>
    <edge id="-1055477971" from="2603097248" to="9693278175" priority="1" type="highway.path" numLanes="1" speed="5.56" shape="2369.33,5215.41 2356.58,5202.57 2354.30,5197.94 2352.43,5188.42 2350.48,5182.93" width="2.00" allow="pedestrian bicycle"/>
    <edge id="-1055489940" from="9698583832" to="2603097237" priority="1" type="highway.path" numLanes="1" speed="5.56" shape="3476.53,5070.94 3470.43,5053.78 3468.04,5050.17 3465.88,5046.59" width="2.00" allow="pedestrian bicycle"/>
    <edge id="-1056391417#0" from="6614729627" to="9706807579" priority="1" type="highway.track" numLanes="1" speed="5.56" allow="pedestrian motorcycle moped bicycle"/>
    <edge id="-1056391417#1" from="168845131" to="6614729627" priority="1" type="highway.track" numLanes="1" speed="5.56" shape="1815.09,4991.46 1817.12,5003.74 1830.64,5084.98" allow="pedestrian motorcycle moped bicycle"/>
    <edge id="-1059337964" from="9733115854" to="9733115857" priority="1" type="highway.service" numLanes="1" speed="5.56" allow="pedestrian delivery bicycle"/>
    <edge id="-1059337965#0" from="9733115857" to="9733115858" priority="1" type="highway.service" numLanes="1" speed="5.56" allow="pedestrian delivery bicycle"/>
    <edge id="-1059337965#1" from="9733115855" to="9733115857" priority="1" type="highway.service" numLanes="1" speed="5.56" shape="3184.75,4210.09 3155.86,4195.21 3152.02,4189.09" allow="pedestrian delivery bicycle"/>
    <edge id="-1060517219" from="168837595" to="9743519565" priority="1" type="highway.service" numLanes="1" speed="5.56" shape="3570.18,4874.40 3564.13,4880.69 3545.67,4899.90 3540.32,4901.70 3515.64,4937.01" allow="pedestrian delivery bicycle"/>
    <edge id="-1060517220#0" from="9743519569" to="9743519568" priority="1" type="highway.service" numLanes="1" speed="5.56" allow="pedestrian delivery bicycle"/>
    <edge id="-1060517220#1" from="9743519571" to="9743519569" priority="1" type="highway.service" numLanes="1" speed="5.56" shape="3577.72,4814.92 3585.09,4869.51 3588.84,4890.43 3586.06,4896.86" allow="pedestrian delivery bicycle"/>
    <edge id="-1060519994" from="9743544210" to="9743544209" priority="1" type="highway.service" numLanes="1" speed="5.56" allow="pedestrian delivery bicycle"/>
    <edge id="-1060519995" from="9743544213" to="9743544211" priority="1" type="highway.service" numLanes="1" speed="5.56" shape="1767.14,3928.78 1769.73,3931.64 1780.54,3952.88" allow="pedestrian delivery bicycle"/>
    <edge id="-1062638160" from="9761994084" to="9761994089" priority="1" type="highway.service" numLanes="1" speed="5.56" shape="4065.42,5609.85 4070.39,5603.82 4074.05,5573.34 4065.07,5558.93 4037.68,5555.86 4030.56,5562.50" allow="pedestrian delivery bicycle"/>
    <edge id="-1062638161" from="9761994090" to="9761994094" priority="1" type="highway.service" numLanes="1" speed="5.56" shape="3953.60,5460.19 3963.49,5453.03 3963.67,5447.29 3958.08,5436.42 3954.47,5423.01" allow="pedestrian delivery bicycle"/>
    <edge id="-1062638165" from="168834870" to="242160172" priority="3" type="highway.residential" numLanes="1" speed="13.89" disallow="tram rail_urban rail rail_electric rail_fast ship"/>
    <edge id="-1062638167#0" from="9761994111" to="9761994113" priority="1" type="highway.service" numLanes="1" speed="5.56" shape="2919.82,4626.07 2927.66,4614.20 2928.41,4602.15" allow="pedestrian delivery bicycle"/>
    <edge id="-1062638167#1" from="11226843365" to="9761994111" priority="1" type="highway.service" numLanes="1" speed="5.56" shape="2938.99,4647.43 2935.06,4652.22 2933.28,4653.84 2931.89,4654.39 2928.76,4654.35 2925.60,4652.78 2904.76,4638.60 2915.12,4624.37 2919.82,4626.07" allow="pedestrian delivery bicycle"/>
    <edge id="-1062638167#2" from="9761994111" to="11226843365" priority="1" type="highway.service" numLanes="1" speed="5.56" shape="2919.82,4626.07 2930.09,4632.48 2936.73,4636.63 2938.21,4638.05 2939.57,4640.18 2939.98,4642.95 2939.83,4645.27 2938.99,4647.43" allow="pedestrian delivery bicycle"/>
    <edge id="-1064509871" from="472320113" to="472320097" priority="1" type="highway.path" numLanes="1" speed="5.56" width="2.00" allow="pedestrian bicycle"/>
    <edge id="-1064509872" from="472320115" to="472320097" priority="1" type="highway.path" numLanes="1" speed="5.56" width="2.00" allow="pedestrian bicycle"/>
    <edge id="-1064509873#0" from="472320108" to="472320109" priority="1" type="highway.path" numLanes="1" speed="5.56" width="2.00" allow="pedestrian bicycle"/>
    <edge id="-1064509873#1" from="472320079" to="472320108" priority="1" type="highway.path" numLanes="1" speed="5.56" shape="2220.34,4083.48 2258.30,4105.03 2262.40,4107.35" width="2.00" allow="pedestrian bicycle"/>
    <edge id="-1064509874" from="472320109" to="9748169808" priority="1" type="highway.path" numLanes="1" speed="5.56" shape="2293.40,4126.97 2287.57,4131.71 2280.76,4136.61" width="2.00" allow="pedestrian bicycle"/>
    <edge id="-1064509875" from="472320070" to="472320102" priority="1" type="highway.path" numLanes="1" speed="5.56" width="2.00" allow="pedestrian bicycle"/>
    <edge id="-1064509877" from="7556398684" to="cluster_7556398678_7556412986" priority="1" type="highway.path" numLanes="1" speed="5.56" shape="2163.31,3505.27 2160.15,3507.48 2157.76,3510.52 2156.37,3514.11 2156.09,3517.96" width="2.00" allow="pedestrian bicycle"/>
    <edge id="-1064509878" from="1708936170" to="5650326107" priority="1" type="highway.path" numLanes="1" speed="5.56" width="2.00" allow="pedestrian bicycle"/>
    <edge id="-1064509880" from="5031293517" to="7515059370" priority="1" type="highway.path" numLanes="1" speed="5.56" shape="3199.75,3882.30 3202.76,3876.76 3192.06,3871.36 3145.94,3848.04" width="2.00" allow="pedestrian bicycle"/>
    <edge id="-1064510411#0" from="7556398677" to="472320078" priority="1" type="highway.path" numLanes="1" speed="5.56" shape="2916.71,4435.84 2941.56,4448.25 2961.77,4467.93" width="2.00" allow="pedestrian bicycle"/>
    <edge id="-1064510411#1" from="6127797658" to="7556398677" priority="1" type="highway.path" numLanes="1" speed="5.56" width="2.00" allow="pedestrian bicycle"/>
    <edge id="-106618237" from="1226525995" to="393739498" priority="1" type="highway.track" numLanes="1" speed="5.56" shape="1786.61,3051.39 1789.39,3038.95 1791.05,3030.39 1803.48,2970.67" allow="pedestrian motorcycle moped bicycle"/>
    <edge id="-1067007406" from="cluster_7262032709_7262032710" to="7262032688" priority="1" type="highway.cycleway" numLanes="1" speed="5.56" shape="2969.06,5038.11 2964.68,5036.02 2958.93,5035.48 2954.80,5032.50 2951.95,5028.89 2950.57,5026.15 2949.83,5023.82 2946.82,5018.15" width="2.00" allow="bicycle"/>
    <edge id="-1067896658#0" from="9803905949" to="9803905947" priority="1" type="highway.service" numLanes="1" speed="5.56" allow="pedestrian delivery bicycle"/>
    <edge id="-1067896658#1" from="1792991482" to="9803905949" priority="1" type="highway.service" numLanes="1" speed="5.56" allow="pedestrian delivery bicycle"/>
    <edge id="-1067896658#2" from="11290906988" to="1792991482" priority="1" type="highway.service" numLanes="1" speed="5.56" allow="pedestrian delivery bicycle"/>
    <edge id="-1067896658#3" from="9803905947" to="11290906988" priority="1" type="highway.service" numLanes="1" speed="5.56" shape="4438.78,4496.69 4440.50,4479.34 4390.46,4474.86" allow="pedestrian delivery bicycle"/>
    <edge id="-1067896659#0" from="cluster_1792988815_2573734586" to="168854344" priority="3" type="highway.residential" numLanes="1" speed="13.89" shape="4400.82,4608.38 4399.68,4625.75 4398.58,4633.60 4397.11,4639.04 4395.21,4642.41 4390.88,4646.53" disallow="tram rail_urban rail rail_electric rail_fast ship"/>
    <edge id="-1067896659#2" from="303408316" to="cluster_1792988815_2573734586" priority="3" type="highway.residential" numLanes="1" speed="13.89" shape="4404.55,4559.09 4402.94,4575.70 4401.26,4601.58" disallow="tram rail_urban rail rail_electric rail_fast ship"/>
    <edge id="-1067907189" from="9804005331" to="9804005330" priority="1" type="highway.service" numLanes="1" speed="5.56" shape="4294.03,4471.52 4293.46,4488.09 4293.16,4496.60" allow="pedestrian delivery bicycle"/>
    <edge id="-1067907191#0" from="cluster_9804005338_9804005339" to="9804005337" priority="1" type="highway.service" numLanes="1" speed="5.56" shape="3853.35,4417.79 3807.08,4463.40" allow="pedestrian delivery bicycle"/>
    <edge id="-1074250931" from="3452802209" to="9853594646" priority="1" type="highway.service" numLanes="1" speed="5.56" shape="2400.57,4795.43 2393.53,4798.96 2381.33,4806.07" allow="pedestrian delivery bicycle"/>
    <edge id="-1078580611" from="9887991802" to="9887991795" priority="1" type="highway.path" numLanes="1" speed="5.56" shape="2684.08,5810.62 2685.45,5806.83 2682.94,5794.49 2696.59,5774.02 2694.76,5773.56 2696.50,5764.76 2694.82,5758.37 2716.69,5733.45 2704.40,5732.51 2697.16,5739.77 2695.81,5738.22 2697.89,5736.55 2647.58,5697.74 2648.92,5691.39 2642.18,5675.35" width="2.00" allow="pedestrian bicycle"/>
    <edge id="-1078580612#0" from="9887991807" to="9887991794" priority="1" type="highway.path" numLanes="1" speed="5.56" shape="2745.12,5421.39 2739.54,5459.39 2752.84,5477.08" width="2.00" allow="pedestrian bicycle"/>
    <edge id="-1078580612#1" from="9887991816" to="9887991807" priority="1" type="highway.path" numLanes="1" speed="5.56" shape="2748.02,5401.67 2733.54,5410.53 2733.19,5411.89 2729.66,5410.88 2728.68,5411.79 2730.01,5413.52 2732.82,5413.53 2745.12,5421.39" width="2.00" allow="pedestrian bicycle"/>
    <edge id="-1078580612#2" from="7262032697" to="9887991816" priority="1" type="highway.path" numLanes="1" speed="5.56" shape="2641.56,5316.31 2673.32,5319.91 2686.18,5324.19 2689.71,5334.02 2737.27,5355.57 2749.51,5365.92 2752.80,5388.25 2748.02,5401.67" width="2.00" allow="pedestrian bicycle"/>
    <edge id="-1079423251" from="9894905038" to="7014819119" priority="1" type="highway.track" numLanes="1" speed="5.56" shape="3619.94,4707.27 3635.20,4728.34 3638.29,4746.38 3634.49,4760.39" allow="pedestrian motorcycle moped bicycle"/>
    <edge id="-1079423258#0" from="168837595" to="9743519568" priority="10" type="highway.tertiary" numLanes="1" speed="8.33" shape="3570.18,4874.40 3574.45,4889.79 3578.57,4904.60" disallow="tram rail_urban rail rail_electric rail_fast ship"/>
    <edge id="-1079423259#0" from="9743519568" to="168837592" priority="10" type="highway.tertiary" numLanes="1" speed="8.33" shape="3578.57,4904.60 3581.04,4910.56 3584.70,4916.18 3587.45,4919.02 3591.18,4922.02" disallow="tram rail_urban rail rail_electric rail_fast ship"/>
    <edge id="-1079423260#0" from="168836510" to="168837595" priority="10" type="highway.tertiary" numLanes="1" speed="8.33" shape="3555.32,4826.92 3558.61,4836.38 3570.18,4874.40" disallow="tram rail_urban rail rail_electric rail_fast ship"/>
    <edge id="-1079423260#1" from="6711008671" to="168836510" priority="10" type="highway.tertiary" numLanes="1" speed="8.33" disallow="tram rail_urban rail rail_electric rail_fast ship"/>
    <edge id="-1079423260#2" from="3813952568" to="6711008671" priority="10" type="highway.tertiary" numLanes="1" speed="8.33" shape="3549.15,4801.47 3549.40,4808.27 3551.20,4814.81" disallow="tram rail_urban rail rail_electric rail_fast ship"/>
    <edge id="-1084456652#0" from="393739511" to="3245940566" priority="1" type="highway.path" numLanes="1" speed="5.56" width="2.00" allow="pedestrian bicycle"/>
    <edge id="-1084456652#1" from="9937580366" to="393739511" priority="1" type="highway.path" numLanes="1" speed="5.56" shape="2007.47,2981.16 1980.23,3000.09 1953.24,3019.94" width="2.00" allow="pedestrian bicycle"/>
    <edge id="-1087941520" from="1792988838" to="7855333225" priority="11" type="highway.secondary" numLanes="1" speed="13.89" disallow="tram rail_urban rail rail_electric rail_fast ship">
        <param key="ref" value="D 138"/>
    </edge>
    <edge id="-1087952309" from="9968161065" to="9968161063" priority="1" type="highway.path" numLanes="1" speed="5.56" shape="4775.58,4578.32 4776.32,4579.09 4775.15,4590.68" width="2.00" allow="pedestrian bicycle"/>
    <edge id="-1087952311" from="9968161067" to="9968161066" priority="1" type="highway.path" numLanes="1" speed="5.56" width="2.00" allow="pedestrian bicycle"/>
    <edge id="-1087952313" from="9968161069" to="9968161060" priority="1" type="highway.path" numLanes="1" speed="5.56" shape="4778.19,4594.42 4779.07,4595.10 4780.81,4592.64 4781.75,4593.07" width="2.00" allow="pedestrian bicycle"/>
    <edge id="-1095255406" from="10030422973" to="10030422972" priority="1" type="highway.service" numLanes="1" speed="5.56" allow="pedestrian delivery bicycle"/>
    <edge id="-1105322613#0" from="617034136" to="3138673061" priority="1" type="highway.path" numLanes="1" speed="5.56" shape="2367.57,5700.93 2354.74,5742.80 2353.17,5752.10 2346.77,5768.64 2321.10,5809.16 2322.34,5818.56 2318.19,5824.79" width="2.00" allow="pedestrian bicycle"/>
    <edge id="-1105322613#1" from="617034129" to="617034136" priority="1" type="highway.path" numLanes="1" speed="5.56" shape="2343.76,5666.96 2350.51,5685.09 2360.05,5687.83 2365.98,5692.69 2367.57,5700.93" width="2.00" allow="pedestrian bicycle"/>
    <edge id="-1105322614#0" from="7319441448" to="617034129" priority="1" type="highway.path" numLanes="1" speed="5.56" shape="2327.71,5631.50 2330.31,5633.72 2338.33,5647.21 2343.76,5666.96" width="2.00" allow="pedestrian bicycle"/>
    <edge id="-1105322614#1" from="7319441434" to="7319441448" priority="1" type="highway.path" numLanes="1" speed="5.56" shape="2321.47,5622.26 2326.76,5628.34 2327.71,5631.50" width="2.00" allow="pedestrian bicycle"/>
    <edge id="-1105322615#0" from="162596168" to="162596167" priority="11" type="highway.secondary" numLanes="1" speed="27.78" disallow="tram rail_urban rail rail_electric rail_fast ship">
        <param key="ref" value="D 116"/>
    </edge>
    <edge id="-1105322615#1" from="3138673062" to="162596168" priority="11" type="highway.secondary" numLanes="1" speed="27.78" disallow="tram rail_urban rail rail_electric rail_fast ship">
        <param key="ref" value="D 116"/>
    </edge>
    <edge id="-1105325521#0" from="10754333430" to="301691501" priority="1" type="highway.track" numLanes="1" speed="5.56" shape="2897.98,5514.57 2901.81,5513.98 2911.83,5511.15" allow="pedestrian motorcycle moped bicycle"/>
    <edge id="-1105325521#1" from="1340907307" to="10754333430" priority="1" type="highway.track" numLanes="1" speed="5.56" shape="2847.98,5460.69 2877.63,5506.56 2883.81,5512.37 2887.09,5514.17 2890.93,5514.83 2897.98,5514.57" allow="pedestrian motorcycle moped bicycle"/>
    <edge id="-1105325521#2" from="cluster_2603097272_301691508" to="1340907307" priority="1" type="highway.track" numLanes="1" speed="5.56" shape="2807.90,5397.69 2811.63,5403.16 2817.44,5408.61 2833.84,5430.28 2847.98,5460.69" allow="pedestrian motorcycle moped bicycle"/>
    <edge id="-1105325521#3" from="cluster_1340907301_7262032692" to="cluster_2603097272_301691508" priority="1" type="highway.track" numLanes="1" speed="5.56" shape="2788.35,5328.97 2795.94,5343.28 2807.90,5397.69" allow="pedestrian motorcycle moped bicycle"/>
    <edge id="-1105325522#1" from="617746507" to="cluster_1340907301_7262032692" priority="1" type="highway.track" numLanes="1" speed="5.56" shape="2779.32,5332.74 2779.06,5331.08 2779.18,5329.44 2780.15,5327.97 2781.50,5326.73" allow="pedestrian motorcycle moped bicycle"/>
    <edge id="-1105462827" from="617746522" to="10114882386" priority="1" type="highway.path" numLanes="1" speed="5.56" shape="3126.93,5395.70 3138.11,5368.19 3138.87,5342.45 3138.75,5310.40" width="2.00" allow="pedestrian bicycle"/>
    <edge id="-1105462828#0" from="617746551" to="2292928528" priority="1" type="highway.path" numLanes="1" speed="5.56" width="2.00" allow="pedestrian bicycle"/>
    <edge id="-1105462828#1" from="617746527" to="617746551" priority="1" type="highway.path" numLanes="1" speed="5.56" shape="3282.52,5311.91 3291.47,5300.45 3314.41,5296.33 3323.20,5299.20 3329.54,5304.25 3332.21,5318.41 3330.37,5332.08" width="2.00" allow="pedestrian bicycle"/>
    <edge id="-1105462828#2" from="617746524" to="617746527" priority="1" type="highway.path" numLanes="1" speed="5.56" shape="3192.31,5369.77 3192.53,5349.21 3209.86,5335.95 3250.86,5319.07 3282.52,5311.91" width="2.00" allow="pedestrian bicycle"/>
    <edge id="-1105462828#3" from="7058354758" to="617746524" priority="1" type="highway.path" numLanes="1" speed="5.56" shape="3162.89,5393.35 3174.99,5388.12 3185.95,5382.85 3192.31,5369.77" width="2.00" allow="pedestrian bicycle"/>
    <edge id="-1105462828#4" from="cluster_2329699586_7058354718" to="7058354758" priority="1" type="highway.path" numLanes="1" speed="5.56" shape="3143.62,5404.91 3162.89,5393.35" width="2.00" allow="pedestrian bicycle"/>
    <edge id="-1105462829#0" from="241927632" to="cluster_2329699586_7058354718" priority="1" type="highway.track" numLanes="1" speed="5.56" shape="3088.18,5447.41 3150.44,5410.08" allow="pedestrian motorcycle moped bicycle"/>
    <edge id="-1105462829#1" from="2161017803" to="241927632" priority="1" type="highway.track" numLanes="1" speed="5.56" shape="3046.94,5450.98 3079.28,5448.75 3083.83,5448.46 3088.18,5447.41" allow="pedestrian motorcycle moped bicycle"/>
    <edge id="-1105462829#2" from="9692940500" to="2161017803" priority="1" type="highway.track" numLanes="1" speed="5.56" allow="pedestrian motorcycle moped bicycle"/>
    <edge id="-1105462829#3" from="301691501" to="9692940500" priority="1" type="highway.track" numLanes="1" speed="5.56" shape="2911.83,5511.15 3019.73,5455.39 3030.31,5452.17" allow="pedestrian motorcycle moped bicycle"/>
    <edge id="-1105462831" from="617746522" to="cluster_2329699586_7058354718" priority="1" type="highway.path" numLanes="1" speed="5.56" shape="3126.93,5395.70 3143.62,5404.91" width="2.00" allow="pedestrian bicycle"/>
    <edge id="-1105466445#0" from="2835390088" to="7058354689" priority="1" type="highway.track" numLanes="1" speed="5.56" allow="pedestrian motorcycle moped bicycle"/>
    <edge id="-1105466445#1" from="208911320" to="2835390088" priority="1" type="highway.track" numLanes="1" speed="5.56" allow="pedestrian motorcycle moped bicycle"/>
    <edge id="-1105466446#0" from="9887991802" to="2835390087" priority="1" type="highway.path" numLanes="1" speed="5.56" shape="2684.08,5810.62 2699.44,5806.42 2752.30,5770.81 2796.11,5815.96" width="2.00" allow="pedestrian bicycle"/>
    <edge id="-1105466446#1" from="10116089836" to="9887991802" priority="1" type="highway.path" numLanes="1" speed="5.56" shape="2489.02,5826.87 2507.53,5837.09 2535.20,5822.87 2575.67,5821.14 2642.08,5822.09 2684.08,5810.62" width="2.00" allow="pedestrian bicycle"/>
    <edge id="-1105466447" from="2835390088" to="2835390091" priority="1" type="highway.track" numLanes="1" speed="5.56" shape="2870.19,5823.86 2853.58,5823.57 2828.54,5816.06" allow="pedestrian motorcycle moped bicycle"/>
    <edge id="-1105466448#0" from="617034144" to="161616233" priority="1" type="highway.path" numLanes="1" speed="5.56" shape="2409.01,5888.42 2381.69,5906.15 2372.40,5951.39" width="2.00" allow="pedestrian bicycle"/>
    <edge id="-1105466448#1" from="617034166" to="617034144" priority="1" type="highway.path" numLanes="1" speed="5.56" shape="2454.76,5952.08 2436.78,5925.38 2409.01,5888.42" width="2.00" allow="pedestrian bicycle"/>