<?xml version="1.0" encoding="UTF-8"?>

<!-- generated on 2025-04-08 22:55:46 by Eclipse SUMO netconvert Version 1.19.0
<configuration xmlns:xsi="http://www.w3.org/2001/XMLSchema-instance" xsi:noNamespaceSchemaLocation="http://sumo.dlr.de/xsd/netconvertConfiguration.xsd">

    <input>
        <sumo-net-file value="fontainebleau/fontainebleau.net.xml"/>
    </input>

    <output>
        <plain-output-prefix value="fontainebleau/fontainebleau"/>
    </output>

    <processing>
        <geometry.min-radius.fix.railways value="false"/>
        <geometry.max-grade.fix value="false"/>
        <offset.disable-normalization value="true"/>
        <lefthand value="0"/>
    </processing>

    <tls_building>
        <tls.ignore-internal-junction-jam value="1"/>
    </tls_building>

    <junctions>
        <no-turnarounds value="true"/>
        <junctions.corner-detail value="5"/>
        <junctions.limit-turn-speed value="5.50"/>
        <rectangular-lane-cut value="0"/>
    </junctions>

    <pedestrian>
        <walkingareas value="0"/>
    </pedestrian>

</configuration>
-->

<connections version="1.16" xmlns:xsi="http://www.w3.org/2001/XMLSchema-instance" xsi:noNamespaceSchemaLocation="http://sumo.dlr.de/xsd/connections_file.xsd">
    <connection from="-1007622931" to="1007622931" fromLane="0" toLane="0"/>

    <connection from="-101539949" to="158749371" fromLane="0" toLane="0"/>
    <connection from="-101539949" to="-948166654" fromLane="0" toLane="0"/>
    <connection from="-101539949" to="101539949" fromLane="0" toLane="0"/>

    <connection from="-102015880#0" to="102015881#3" fromLane="0" toLane="0" visibility="9.00"/>

    <connection from="-102015880#1" to="1107704965#3" fromLane="0" toLane="0"/>
    <connection from="-102015880#1" to="-102015880#0" fromLane="0" toLane="0"/>
    <connection from="-102015880#1" to="102015880#1" fromLane="0" toLane="0"/>

    <connection from="-102015882#0" to="102015881#4" fromLane="0" toLane="0" visibility="9.00"/>

    <connection from="-102015882#1" to="1107704965#4" fromLane="0" toLane="0"/>
    <connection from="-102015882#1" to="-102015882#0" fromLane="0" toLane="0"/>

    <connection from="-102015882#2" to="22584560" fromLane="0" toLane="0"/>
    <connection from="-102015882#2" to="-102015882#1" fromLane="0" toLane="0"/>
    <connection from="-102015882#2" to="102015882#2" fromLane="0" toLane="0"/>

    <connection from="-102015882#3" to="1059337965#0" fromLane="0" toLane="0"/>
    <connection from="-102015882#3" to="-102015882#2" fromLane="0" toLane="0"/>

    <connection from="-102015882#4" to="-552994552" fromLane="0" toLane="0"/>
    <connection from="-102015882#4" to="22584564" fromLane="0" toLane="0"/>
    <connection from="-102015882#4" to="-102015882#3" fromLane="0" toLane="0"/>
    <connection from="-102015882#4" to="39428820" fromLane="0" toLane="0"/>
    <connection from="-102015882#4" to="102015882#4" fromLane="0" toLane="0"/>

    <connection from="-102565156#0" to="803386254#5" fromLane="0" toLane="0"/>
    <connection from="-102565156#0" to="-803386254#4" fromLane="0" toLane="0"/>
    <connection from="-102565156#0" to="-841510447" fromLane="0" toLane="0"/>
    <connection from="-102565156#0" to="102565156#0" fromLane="0" toLane="0"/>

    <connection from="-102565156#1" to="-160337313#0" fromLane="0" toLane="0"/>
    <connection from="-102565156#1" to="-102565156#0" fromLane="0" toLane="0"/>
    <connection from="-102565156#1" to="160337313#1" fromLane="0" toLane="0"/>
    <connection from="-102565156#1" to="102565156#1" fromLane="0" toLane="0"/>

    <connection from="-1034094730" to="1121673780" fromLane="0" toLane="0"/>

    <connection from="-1034422403#0" to="-26257432#1" fromLane="0" toLane="0"/>
    <connection from="-1034422403#0" to="26257432#2" fromLane="0" toLane="0"/>
    <connection from="-1034422403#0" to="1034422403#0" fromLane="0" toLane="0"/>

    <connection from="-1034422403#1" to="-1034422403#0" fromLane="0" toLane="0"/>
    <connection from="-1034422403#1" to="1034422403#1" fromLane="0" toLane="0"/>

    <connection from="-1034422405#0" to="1034422405#0" fromLane="0" toLane="0"/>

    <connection from="-1034422405#1" to="-1034422405#0" fromLane="0" toLane="0"/>
    <connection from="-1034422405#1" to="1034422405#1" fromLane="0" toLane="0"/>

    <connection from="-104137208" to="205023901#1" fromLane="0" toLane="0"/>
    <connection from="-104137208" to="80435643#2" fromLane="0" toLane="0"/>
    <connection from="-104137208" to="-205023901#0" fromLane="0" toLane="0"/>
    <connection from="-104137208" to="-80435643#1" fromLane="0" toLane="0"/>
    <connection from="-104137208" to="104137208" fromLane="0" toLane="0"/>

    <connection from="-104137214" to="80435639#5" fromLane="0" toLane="0"/>
    <connection from="-104137214" to="-104137208" fromLane="0" toLane="0"/>
    <connection from="-104137214" to="205023911#0" fromLane="0" toLane="0"/>
    <connection from="-104137214" to="-80435639#4" fromLane="0" toLane="0"/>
    <connection from="-104137214" to="1125911704" fromLane="0" toLane="0"/>

    <connection from="-104137226" to="-104137214" fromLane="0" toLane="0" keepClear="0"/>

    <connection from="-1041459576#0" to="-27479021#2" fromLane="0" toLane="0" keepClear="0"/>
    <connection from="-1041459576#0" to="1041459576#0" fromLane="0" toLane="0"/>

    <connection from="-1041459576#1" to="-1041459576#0" fromLane="0" toLane="0"/>
    <connection from="-1041459576#1" to="778104992" fromLane="0" toLane="0"/>
    <connection from="-1041459576#1" to="1041459576#1" fromLane="0" toLane="0"/>

    <connection from="-104149331" to="658001136#2" fromLane="0" toLane="0"/>
    <connection from="-104149331" to="-658001136#1" fromLane="0" toLane="0"/>
    <connection from="-104149331" to="104149331" fromLane="0" toLane="0"/>

    <connection from="-104149350#0" to="104149350#0" fromLane="0" toLane="0"/>

    <connection from="-104149350#1" to="-104149350#0" fromLane="0" toLane="0"/>
    <connection from="-104149350#1" to="205316246" fromLane="0" toLane="0"/>
    <connection from="-104149350#1" to="104149350#1" fromLane="0" toLane="0"/>

    <connection from="-104149350#2" to="104149366#2" fromLane="0" toLane="0"/>
    <connection from="-104149350#2" to="-104149350#1" fromLane="0" toLane="0"/>
    <connection from="-104149350#2" to="-104149366#1" fromLane="0" toLane="0"/>
    <connection from="-104149350#2" to="104149350#2" fromLane="0" toLane="0"/>

    <connection from="-104149352#0" to="658284938#2" fromLane="0" toLane="0"/>
    <connection from="-104149352#0" to="-658284938#1" fromLane="0" toLane="0"/>
    <connection from="-104149352#0" to="104149352#0" fromLane="0" toLane="0"/>

    <connection from="-104149352#1" to="48834443#1" fromLane="0" toLane="0"/>
    <connection from="-104149352#1" to="-104149352#0" fromLane="0" toLane="0"/>
    <connection from="-104149352#1" to="-48834443#0" fromLane="0" toLane="0"/>
    <connection from="-104149352#1" to="104149352#1" fromLane="0" toLane="0"/>

    <connection from="-104149352#2" to="323053494" fromLane="0" toLane="0"/>
    <connection from="-104149352#2" to="-104149352#1" fromLane="0" toLane="0"/>
    <connection from="-104149352#2" to="104149352#2" fromLane="0" toLane="0"/>

    <connection from="-104149361#0" to="-280769274#1" fromLane="0" toLane="0"/>
    <connection from="-104149361#0" to="280769274#2" fromLane="0" toLane="0"/>

    <connection from="-104149361#1" to="-104149361#0" fromLane="0" toLane="0"/>
    <connection from="-104149361#1" to="104149361#1" fromLane="0" toLane="0"/>

    <connection from="-104149361#2" to="-104149361#1" fromLane="0" toLane="0"/>
    <connection from="-104149361#2" to="1118462013" fromLane="0" toLane="0"/>
    <connection from="-104149361#2" to="104149361#2" fromLane="0" toLane="0"/>

    <connection from="-104149366#0" to="-39736814#2" fromLane="0" toLane="0"/>
    <connection from="-104149366#0" to="39736814#3" fromLane="0" toLane="0"/>
    <connection from="-104149366#0" to="104149366#0" fromLane="0" toLane="0"/>

    <connection from="-104149366#1" to="350806655" fromLane="0" toLane="0"/>
    <connection from="-104149366#1" to="-104149366#0" fromLane="0" toLane="0"/>
    <connection from="-104149366#1" to="-205201651" fromLane="0" toLane="0"/>
    <connection from="-104149366#1" to="104149366#1" fromLane="0" toLane="0"/>

    <connection from="-104149366#2" to="-104149350#1" fromLane="0" toLane="0"/>
    <connection from="-104149366#2" to="-104149366#1" fromLane="0" toLane="0"/>
    <connection from="-104149366#2" to="104149350#2" fromLane="0" toLane="0"/>
    <connection from="-104149366#2" to="104149366#2" fromLane="0" toLane="0"/>

    <connection from="-1052926846" to="1007622932" fromLane="0" toLane="0"/>

    <connection from="-1054818479#0" to="-27479057#1" fromLane="0" toLane="0"/>
    <connection from="-1054818479#0" to="27479057#2" fromLane="0" toLane="0"/>
    <connection from="-1054818479#0" to="1054818479#0" fromLane="0" toLane="0"/>

    <connection from="-1054818479#1" to="48647133#1" fromLane="0" toLane="0"/>
    <connection from="-1054818479#1" to="-1054818479#0" fromLane="0" toLane="0"/>
    <connection from="-1054818479#1" to="-48647133#0" fromLane="0" toLane="0"/>
    <connection from="-1054818479#1" to="1054818479#1" fromLane="0" toLane="0"/>

    <connection from="-1054823954#0" to="-1105462829#2" fromLane="0" toLane="0"/>
    <connection from="-1054823954#0" to="1105462829#3" fromLane="0" toLane="0"/>
    <connection from="-1054823954#0" to="1054823954#0" fromLane="0" toLane="0"/>

    <connection from="-1054823954#1" to="-48647131#0" fromLane="0" toLane="0"/>
    <connection from="-1054823954#1" to="-1054823954#0" fromLane="0" toLane="0"/>
    <connection from="-1054823954#1" to="48647131#1" fromLane="0" toLane="0"/>
    <connection from="-1054823954#1" to="1054823954#1" fromLane="0" toLane="0"/>

    <connection from="-1054869047#0" to="16379815#5" fromLane="0" toLane="0"/>
    <connection from="-1054869047#0" to="-16379815#4" fromLane="0" toLane="0"/>
    <connection from="-1054869047#0" to="1054869047#0" fromLane="0" toLane="0"/>

    <connection from="-1054869047#1" to="-279318450#1" fromLane="0" toLane="0"/>
    <connection from="-1054869047#1" to="-1054869047#0" fromLane="0" toLane="0"/>
    <connection from="-1054869047#1" to="279318450#2" fromLane="0" toLane="0"/>
    <connection from="-1054869047#1" to="1054869047#1" fromLane="0" toLane="0"/>

    <connection from="-1054869047#2" to="778109795#1" fromLane="0" toLane="0"/>
    <connection from="-1054869047#2" to="-1054869047#1" fromLane="0" toLane="0"/>
    <connection from="-1054869047#2" to="-778109795#0" fromLane="0" toLane="0"/>
    <connection from="-1054869047#2" to="1054869047#2" fromLane="0" toLane="0"/>

    <connection from="-1054869048" to="1054869048" fromLane="0" toLane="0"/>

    <connection from="-1054876785" to="1054876785" fromLane="0" toLane="0"/>

    <connection from="-1055477971" to="-82362338#0" fromLane="0" toLane="0"/>
    <connection from="-1055477971" to="-1054869047#2" fromLane="0" toLane="0"/>
    <connection from="-1055477971" to="82362338#1" fromLane="0" toLane="0"/>
    <connection from="-1055477971" to="1055477971" fromLane="0" toLane="0"/>

    <connection from="-1055489940" to="-254495313#2" fromLane="0" toLane="0"/>
    <connection from="-1055489940" to="254495313#3" fromLane="0" toLane="0"/>
    <connection from="-1055489940" to="1055489940" fromLane="0" toLane="0"/>

    <connection from="-1056391417#0" to="1056391417#0" fromLane="0" toLane="0"/>

    <connection from="-1056391417#1" to="704357395" fromLane="0" toLane="0"/>
    <connection from="-1056391417#1" to="-1056391417#0" fromLane="0" toLane="0"/>
    <connection from="-1056391417#1" to="808733639#0" fromLane="0" toLane="0"/>
    <connection from="-1056391417#1" to="1056391417#1" fromLane="0" toLane="0"/>

    <connection from="-1059337964" to="-1059337965#0" fromLane="0" toLane="0"/>
    <connection from="-1059337964" to="1059337965#1" fromLane="0" toLane="0"/>
    <connection from="-1059337964" to="1059337964" fromLane="0" toLane="0"/>

    <connection from="-1059337965#0" to="-102015882#2" fromLane="0" toLane="0"/>
    <connection from="-1059337965#0" to="102015882#3" fromLane="0" toLane="0"/>
    <connection from="-1059337965#0" to="1059337965#0" fromLane="0" toLane="0"/>

    <connection from="-1059337965#1" to="1059337964" fromLane="0" toLane="0"/>
    <connection from="-1059337965#1" to="-1059337965#0" fromLane="0" toLane="0"/>
    <connection from="-1059337965#1" to="1059337965#1" fromLane="0" toLane="0"/>

    <connection from="-1060517219" to="1060517219" fromLane="0" toLane="0"/>

    <connection from="-1060517220#0" to="-1079423259#0" fromLane="0" toLane="0"/>
    <connection from="-1060517220#0" to="1079423259#1" fromLane="0" toLane="0"/>
    <connection from="-1060517220#0" to="1060517220#0" fromLane="0" toLane="0"/>

    <connection from="-1060517220#1" to="-1060517220#0" fromLane="0" toLane="0"/>
    <connection from="-1060517220#1" to="1060517220#1" fromLane="0" toLane="0"/>

    <connection from="-1060519994" to="1060519994" fromLane="0" toLane="0"/>

    <connection from="-1060519995" to="841415104#1" fromLane="0" toLane="0"/>
    <connection from="-1060519995" to="1060519995" fromLane="0" toLane="0"/>

    <connection from="-1062638160" to="44558831#1" fromLane="0" toLane="0"/>
    <connection from="-1062638160" to="-44558831#0" fromLane="0" toLane="0"/>
    <connection from="-1062638160" to="1062638160" fromLane="0" toLane="0"/>

    <connection from="-1062638161" to="44558791#1" fromLane="0" toLane="0"/>
    <connection from="-1062638161" to="1062638161" fromLane="0" toLane="0"/>

    <connection from="-1062638165" to="-22584560" fromLane="0" toLane="0"/>
    <connection from="-1062638165" to="326041817#3" fromLane="0" toLane="0"/>
    <connection from="-1062638165" to="1062638165" fromLane="0" toLane="0"/>

    <connection from="-1062638167#0" to="572787906#4" fromLane="0" toLane="0"/>
    <connection from="-1062638167#0" to="1062638167#0" fromLane="0" toLane="0"/>

    <connection from="-1062638167#1" to="-1062638167#0" fromLane="0" toLane="0"/>
    <connection from="-1062638167#1" to="-1062638167#2" fromLane="0" toLane="0"/>
    <connection from="-1062638167#1" to="1062638167#1" fromLane="0" toLane="0"/>

    <connection from="-1062638167#2" to="-1062638167#1" fromLane="0" toLane="0"/>

    <connection from="-1064509871" to="-813963037" fromLane="0" toLane="0"/>
    <connection from="-1064509871" to="-39428829#1" fromLane="0" toLane="0"/>
    <connection from="-1064509871" to="1064509872" fromLane="0" toLane="0"/>
    <connection from="-1064509871" to="1064509871" fromLane="0" toLane="0"/>

    <connection from="-1064509872" to="1064509871" fromLane="0" toLane="0"/>
    <connection from="-1064509872" to="-813963037" fromLane="0" toLane="0"/>
    <connection from="-1064509872" to="-39428829#1" fromLane="0" toLane="0"/>
    <connection from="-1064509872" to="1064509872" fromLane="0" toLane="0"/>

    <connection from="-1064509873#0" to="39428829#0" fromLane="0" toLane="0"/>
    <connection from="-1064509873#0" to="-653893334#3" fromLane="0" toLane="0"/>
    <connection from="-1064509873#0" to="-1064509874" fromLane="0" toLane="0"/>
    <connection from="-1064509873#0" to="1064509873#0" fromLane="0" toLane="0"/>

    <connection from="-1064509873#1" to="39428828#1" fromLane="0" toLane="0"/>
    <connection from="-1064509873#1" to="-1064509873#0" fromLane="0" toLane="0"/>
    <connection from="-1064509873#1" to="-39428828#0" fromLane="0" toLane="0"/>
    <connection from="-1064509873#1" to="1064509873#1" fromLane="0" toLane="0"/>

    <connection from="-1064509874" to="-653893332#0" fromLane="0" toLane="0"/>
    <connection from="-1064509874" to="653893332#1" fromLane="0" toLane="0"/>
    <connection from="-1064509874" to="1064509874" fromLane="0" toLane="0"/>

    <connection from="-1064509875" to="-326042330#6" fromLane="0" toLane="0"/>
    <connection from="-1064509875" to="-39428827#2" fromLane="0" toLane="0"/>
    <connection from="-1064509875" to="-841510446#1" fromLane="0" toLane="0"/>
    <connection from="-1064509875" to="1064509875" fromLane="0" toLane="0"/>

    <connection from="-1064509877" to="-808068152#2" fromLane="0" toLane="0"/>
    <connection from="-1064509877" to="-808068153" fromLane="0" toLane="0"/>
    <connection from="-1064509877" to="1064509877" fromLane="0" toLane="0"/>

    <connection from="-1064509878" to="808068154" fromLane="0" toLane="0"/>
    <connection from="-1064509878" to="-158749371" fromLane="0" toLane="0"/>
    <connection from="-1064509878" to="1064509878" fromLane="0" toLane="0"/>

    <connection from="-1064509880" to="326041826#1" fromLane="0" toLane="0"/>
    <connection from="-1064509880" to="-803386256" fromLane="0" toLane="0"/>
    <connection from="-1064509880" to="-326041826#0" fromLane="0" toLane="0"/>

    <connection from="-1064510411#0" to="326042331" fromLane="0" toLane="0"/>
    <connection from="-1064510411#0" to="-102015880#1" fromLane="0" toLane="0"/>
    <connection from="-1064510411#0" to="1064510411#0" fromLane="0" toLane="0"/>

    <connection from="-1064510411#1" to="808068151#0" fromLane="0" toLane="0"/>
    <connection from="-1064510411#1" to="-1064510411#0" fromLane="0" toLane="0"/>
    <connection from="-1064510411#1" to="1064510411#1" fromLane="0" toLane="0"/>

    <connection from="-106618237" to="-222636683#3" fromLane="0" toLane="0"/>
    <connection from="-106618237" to="-34324040" fromLane="0" toLane="0"/>
    <connection from="-106618237" to="34324047#0" fromLane="0" toLane="0"/>
    <connection from="-106618237" to="-318199339#1" fromLane="0" toLane="0"/>
    <connection from="-106618237" to="-318199338#1" fromLane="0" toLane="0"/>
    <connection from="-106618237" to="1064509879" fromLane="0" toLane="0"/>

    <connection from="-1067007406" to="19832208#6" fromLane="0" toLane="0"/>
    <connection from="-1067007406" to="-19832208#5" fromLane="0" toLane="0"/>
    <connection from="-1067007406" to="1067007406" fromLane="0" toLane="0"/>

    <connection from="-1067896658#0" to="-1067896658#3" fromLane="0" toLane="0"/>
    <connection from="-1067896658#0" to="167980106" fromLane="0" toLane="0"/>
    <connection from="-1067896658#0" to="1067896658#0" fromLane="0" toLane="0"/>

    <connection from="-1067896658#1" to="-1067896658#0" fromLane="0" toLane="0"/>
    <connection from="-1067896658#1" to="1067896658#1" fromLane="0" toLane="0"/>

    <connection from="-1067896658#2" to="-1067896658#1" fromLane="0" toLane="0"/>
    <connection from="-1067896658#2" to="1218518181" fromLane="0" toLane="0"/>
    <connection from="-1067896658#2" to="1067896658#2" fromLane="0" toLane="0"/>

    <connection from="-1067896658#3" to="-1067896658#2" fromLane="0" toLane="0"/>
    <connection from="-1067896658#3" to="-1218518181" fromLane="0" toLane="0"/>
    <connection from="-1067896658#3" to="1067896658#3" fromLane="0" toLane="0"/>

    <connection from="-1067896659#0" to="-167979824#6" fromLane="0" toLane="0"/>
    <connection from="-1067896659#0" to="167979824#7" fromLane="0" toLane="0"/>
    <connection from="-1067896659#0" to="1067896659#0" fromLane="0" toLane="0"/>

    <connection from="-1067896659#1" to="-1067896659#0" fromLane="0" toLane="0"/>
    <connection from="-1067896659#1" to="167979832#0" fromLane="0" toLane="0"/>

    <connection from="-1067896659#2" to="-1067896659#1" fromLane="0" toLane="0"/>

    <connection from="-1067907189" to="-76355476#4" fromLane="0" toLane="0"/>
    <connection from="-1067907189" to="76355476#5" fromLane="0" toLane="0"/>
    <connection from="-1067907189" to="1067907189" fromLane="0" toLane="0"/>

    <connection from="-1067907191#0" to="1067907191#0" fromLane="0" toLane="0"/>

    <connection from="-1067907191#1" to="-131118481#4" fromLane="0" toLane="0"/>
    <connection from="-1067907191#1" to="-1067907191#0" fromLane="0" toLane="0"/>
    <connection from="-1067907191#1" to="131118481#5" fromLane="0" toLane="0"/>
    <connection from="-1067907191#1" to="1067907191#1" fromLane="0" toLane="0"/>

    <connection from="-1074250931" to="1074250931" fromLane="0" toLane="0"/>

    <connection from="-1078580611" to="-48580946#0" fromLane="0" toLane="0"/>
    <connection from="-1078580611" to="48580946#1" fromLane="0" toLane="0"/>
    <connection from="-1078580611" to="1078580611" fromLane="0" toLane="0"/>

    <connection from="-1078580612#0" to="48580942#1" fromLane="0" toLane="0"/>
    <connection from="-1078580612#0" to="-48580942#0" fromLane="0" toLane="0"/>
    <connection from="-1078580612#0" to="1078580612#0" fromLane="0" toLane="0"/>

    <connection from="-1078580612#1" to="312369109#1" fromLane="0" toLane="0"/>
    <connection from="-1078580612#1" to="-1078580612#0" fromLane="0" toLane="0"/>
    <connection from="-1078580612#1" to="-312369109#0" fromLane="0" toLane="0"/>
    <connection from="-1078580612#1" to="1078580612#1" fromLane="0" toLane="0"/>

    <connection from="-1078580612#2" to="-254330986#0" fromLane="0" toLane="0"/>
    <connection from="-1078580612#2" to="-1078580612#1" fromLane="0" toLane="0"/>
    <connection from="-1078580612#2" to="254330986#1" fromLane="0" toLane="0"/>
    <connection from="-1078580612#2" to="1078580612#2" fromLane="0" toLane="0"/>

    <connection from="-1079423251" to="577957399" fromLane="0" toLane="0" keepClear="0"/>
    <connection from="-1079423251" to="1079423251" fromLane="0" toLane="0"/>

    <connection from="-1079423258#0" to="1060517220#0" fromLane="0" toLane="0"/>
    <connection from="-1079423258#0" to="-1079423259#0" fromLane="0" toLane="0"/>

    <connection from="-1079423259#0" to="709103709" fromLane="0" toLane="0"/>
    <connection from="-1079423259#0" to="39736807#0" fromLane="0" toLane="0"/>
    <connection from="-1079423259#0" to="17940774" fromLane="0" toLane="0"/>

    <connection from="-1079423260#0" to="-1079423258#0" fromLane="0" toLane="0"/>
    <connection from="-1079423260#0" to="-1060517219" fromLane="0" toLane="0"/>

    <connection from="-1079423260#1" to="-1079423260#0" fromLane="0" toLane="0"/>
    <connection from="-1079423260#1" to="364867194#0" fromLane="0" toLane="0"/>
    <connection from="-1079423260#1" to="1079423260#1" fromLane="0" toLane="0"/>

    <connection from="-1079423260#2" to="-1079423260#1" fromLane="0" toLane="0"/>

    <connection from="-1084456652#0" to="318199339#0" fromLane="0" toLane="0" keepClear="0"/>

    <connection from="-1084456652#1" to="-1084456652#0" fromLane="0" toLane="0"/>
    <connection from="-1084456652#1" to="34324050#0" fromLane="0" toLane="0"/>
    <connection from="-1084456652#1" to="1084456652#1" fromLane="0" toLane="0"/>

    <connection from="-1087941520" to="-48794479" fromLane="0" toLane="0"/>

    <connection from="-1087952309" to="1087952309" fromLane="0" toLane="0"/>

    <connection from="-1087952311" to="1087952311" fromLane="0" toLane="0"/>

    <connection from="-1087952313" to="1087952313" fromLane="0" toLane="0"/>

    <connection from="-1095255406" to="1095255406" fromLane="0" toLane="0"/>

    <connection from="-1105322613#0" to="783635314" fromLane="0" toLane="0"/>
    <connection from="-1105322613#0" to="-308602682" fromLane="0" toLane="0"/>
    <connection from="-1105322613#0" to="1105322613#0" fromLane="0" toLane="0"/>

    <connection from="-1105322613#1" to="-783635314" fromLane="0" toLane="0"/>
    <connection from="-1105322613#1" to="-1105322613#0" fromLane="0" toLane="0"/>
    <connection from="-1105322613#1" to="1105322613#1" fromLane="0" toLane="0"/>

    <connection from="-1105322614#0" to="-1105322613#1" fromLane="0" toLane="0"/>
    <connection from="-1105322614#0" to="741243915#0" fromLane="0" toLane="0"/>
    <connection from="-1105322614#0" to="1105322614#0" fromLane="0" toLane="0"/>

    <connection from="-1105322614#1" to="-1105322614#0" fromLane="0" toLane="0"/>
    <connection from="-1105322614#1" to="-783635316" fromLane="0" toLane="0"/>
    <connection from="-1105322614#1" to="1105322614#1" fromLane="0" toLane="0"/>

    <connection from="-1105322615#0" to="-1041459576#1" fromLane="0" toLane="0"/>
    <connection from="-1105322615#0" to="1105322615#0" fromLane="0" toLane="0"/>

    <connection from="-1105322615#1" to="25932459" fromLane="0" toLane="0"/>
    <connection from="-1105322615#1" to="-1105322615#0" fromLane="0" toLane="0"/>
    <connection from="-1105322615#1" to="1105322615#1" fromLane="0" toLane="0"/>

    <connection from="-1105325521#0" to="-1105462829#3" fromLane="0" toLane="0"/>
    <connection from="-1105325521#0" to="255092485" fromLane="0" toLane="0"/>
    <connection from="-1105325521#0" to="1105325521#0" fromLane="0" toLane="0"/>

    <connection from="-1105325521#1" to="-447956372#2" fromLane="0" toLane="0"/>
    <connection from="-1105325521#1" to="-1105325521#0" fromLane="0" toLane="0"/>
    <connection from="-1105325521#1" to="1105325521#1" fromLane="0" toLane="0"/>

    <connection from="-1105325521#2" to="48647131#3" fromLane="0" toLane="0"/>
    <connection from="-1105325521#2" to="-48647131#2" fromLane="0" toLane="0"/>
    <connection from="-1105325521#2" to="-1105325521#1" fromLane="0" toLane="0"/>
    <connection from="-1105325521#2" to="1105325521#2" fromLane="0" toLane="0"/>

    <connection from="-1105325521#3" to="-1105325521#2" fromLane="0" toLane="0"/>
    <connection from="-1105325521#3" to="-312369109#2" fromLane="0" toLane="0"/>
    <connection from="-1105325521#3" to="1105325521#3" fromLane="0" toLane="0"/>

    <connection from="-1105325522#0" to="447956370#0" fromLane="0" toLane="0"/>
    <connection from="-1105325522#0" to="-48647131#4" fromLane="0" toLane="0"/>
    <connection from="-1105325522#0" to="-1105325521#3" fromLane="0" toLane="0"/>
    <connection from="-1105325522#0" to="1105325522#0" fromLane="0" toLane="0"/>

    <connection from="-1105325522#1" to="778109796" fromLane="0" toLane="0"/>
    <connection from="-1105325522#1" to="-1105325522#0" fromLane="0" toLane="0"/>
    <connection from="-1105325522#1" to="1105325522#1" fromLane="0" toLane="0"/>

    <connection from="-1105462827" to="1105462827" fromLane="0" toLane="0"/>

    <connection from="-1105462828#0" to="-119323858#2" fromLane="0" toLane="0"/>
    <connection from="-1105462828#0" to="119323858#3" fromLane="0" toLane="0"/>
    <connection from="-1105462828#0" to="1105462828#0" fromLane="0" toLane="0"/>

    <connection from="-1105462828#1" to="-220166706#2" fromLane="0" toLane="0"/>
    <connection from="-1105462828#1" to="-1105462828#0" fromLane="0" toLane="0"/>
    <connection from="-1105462828#1" to="220166706#3" fromLane="0" toLane="0"/>
    <connection from="-1105462828#1" to="1105462828#1" fromLane="0" toLane="0"/>

    <connection from="-1105462828#2" to="755674001" fromLane="0" toLane="0"/>
    <connection from="-1105462828#2" to="-1105462828#1" fromLane="0" toLane="0"/>
    <connection from="-1105462828#2" to="1105462828#2" fromLane="0" toLane="0"/>

    <connection from="-1105462828#3" to="-1105462828#2" fromLane="0" toLane="0"/>
    <connection from="-1105462828#3" to="-755674000#1" fromLane="0" toLane="0"/>
    <connection from="-1105462828#3" to="1105462828#3" fromLane="0" toLane="0"/>

    <connection from="-1105462828#4" to="1105325432" fromLane="0" toLane="0"/>
    <connection from="-1105462828#4" to="-1105462828#3" fromLane="0" toLane="0"/>
    <connection from="-1105462828#4" to="1105462828#4" fromLane="0" toLane="0"/>

    <connection from="-1105462829#0" to="1105462830" fromLane="0" toLane="0"/>
    <connection from="-1105462829#0" to="-220166706#4" fromLane="0" toLane="0"/>
    <connection from="-1105462829#0" to="-1292211521" fromLane="0" toLane="0"/>
    <connection from="-1105462829#0" to="1105462829#0" fromLane="0" toLane="0"/>

    <connection from="-1105462829#1" to="-1105462829#0" fromLane="0" toLane="0"/>
    <connection from="-1105462829#1" to="-755673999" fromLane="0" toLane="0"/>
    <connection from="-1105462829#1" to="1105462829#1" fromLane="0" toLane="0"/>

    <connection from="-1105462829#2" to="-1105462829#1" fromLane="0" toLane="0"/>
    <connection from="-1105462829#2" to="173139860#0" fromLane="0" toLane="0"/>
    <connection from="-1105462829#2" to="1105462829#2" fromLane="0" toLane="0"/>

    <connection from="-1105462829#3" to="1054823954#0" fromLane="0" toLane="0"/>
    <connection from="-1105462829#3" to="-1105462829#2" fromLane="0" toLane="0"/>
    <connection from="-1105462829#3" to="1105462829#3" fromLane="0" toLane="0"/>

    <connection from="-1105462830" to="-220166706#4" fromLane="0" toLane="0"/>
    <connection from="-1105462830" to="-1292211521" fromLane="0" toLane="0"/>
    <connection from="-1105462830" to="1105462829#0" fromLane="0" toLane="0"/>
    <connection from="-1105462830" to="1105462830" fromLane="0" toLane="0"/>

    <connection from="-1105462831" to="-1105462828#4" fromLane="0" toLane="0"/>
    <connection from="-1105462831" to="-1105462830" fromLane="0" toLane="0"/>
    <connection from="-1105462831" to="1105462831" fromLane="0" toLane="0"/>

    <connection from="-1105466445#0" to="-255100753" fromLane="0" toLane="0"/>
    <connection from="-1105466445#0" to="755863436" fromLane="0" toLane="0"/>
    <connection from="-1105466445#0" to="1105466445#0" fromLane="0" toLane="0"/>

    <connection from="-1105466445#1" to="-1105466445#0" fromLane="0" toLane="0"/>
    <connection from="-1105466445#1" to="-1105466447" fromLane="0" toLane="0"/>
    <connection from="-1105466445#1" to="1105466445#1" fromLane="0" toLane="0"/>

    <connection from="-1105466446#0" to="279318454#0" fromLane="0" toLane="0"/>
    <connection from="-1105466446#0" to="-191059205" fromLane="0" toLane="0"/>
    <connection from="-1105466446#0" to="1105466446#0" fromLane="0" toLane="0"/>

    <connection from="-1105466446#1" to="-1078580611" fromLane="0" toLane="0"/>
    <connection from="-1105466446#1" to="-1105466446#0" fromLane="0" toLane="0"/>