<edges xmlns:xsi="http://www.w3.org/2001/XMLSchema-instance" version="1.16" xsi:noNamespaceSchemaLocation="http://sumo.dlr.de/xsd/edges_file.xsd">
    <location netOffset="-476116.32,-5357666.89" convBoundary="0.00,-1.47,6425.84,7961.83" origBoundary="2.677156,48.371753,2.764116,48.443455" projParameter="+proj=utm +zone=31 +ellps=WGS84 +datum=WGS84 +units=m +no_defs" />

    <edge id="-102015882#0" from="10135224334" to="2854011838" priority="10" type="highway.tertiary" numLanes="1" speed="8.33" disallow="tram rail_urban rail rail_electric rail_fast ship" />
    <edge id="-102015882#1" from="207146561" to="10135224334" priority="10" type="highway.tertiary" numLanes="1" speed="8.33" shape="3091.85,4233.49 2974.85,4466.64 2973.54,4471.26 2973.04,4473.47 2972.76,4474.69" disallow="tram rail_urban rail rail_electric rail_fast ship" />
    <edge id="-102015882#2" from="9733115858" to="207146561" priority="10" type="highway.tertiary" numLanes="1" speed="8.33" disallow="tram rail_urban rail rail_electric rail_fast ship" />
    <edge id="-102015882#3" from="472320072" to="9733115858" priority="10" type="highway.tertiary" numLanes="1" speed="8.33" disallow="tram rail_urban rail rail_electric rail_fast ship" />
    <edge id="-102015882#4" from="5338546424" to="472320072" priority="10" type="highway.tertiary" numLanes="1" speed="8.33" disallow="tram rail_urban rail rail_electric rail_fast ship" />
    <edge id="-1062638165" from="168834870" to="242160172" priority="3" type="highway.residential" numLanes="1" speed="13.89" disallow="tram rail_urban rail rail_electric rail_fast ship" />
    <edge id="-1067896659#0" from="1792988815" to="168854344" priority="3" type="highway.residential" numLanes="1" speed="13.89" shape="4400.82,4608.38 4399.68,4625.75 4398.58,4633.60 4397.11,4639.04 4395.21,4642.41 4390.88,4646.53" disallow="tram rail_urban rail rail_electric rail_fast ship" />
    <edge id="-1067896659#1" from="2573734586" to="1792988815" priority="3" type="highway.residential" numLanes="1" speed="13.89" disallow="tram rail_urban rail rail_electric rail_fast ship" />
    <edge id="-1067896659#2" from="303408316" to="2573734586" priority="3" type="highway.residential" numLanes="1" speed="13.89" shape="4404.55,4559.09 4402.94,4575.70 4401.26,4601.58" disallow="tram rail_urban rail rail_electric rail_fast ship" />
    <edge id="-1079423258#0" from="168837595" to="9743519568" priority="10" type="highway.tertiary" numLanes="1" speed="8.33" shape="3570.18,4874.40 3574.45,4889.79 3578.57,4904.60" disallow="tram rail_urban rail rail_electric rail_fast ship" />
    <edge id="-1079423259#0" from="9743519568" to="168837592" priority="10" type="highway.tertiary" numLanes="1" speed="8.33" shape="3578.57,4904.60 3581.04,4910.56 3584.70,4916.18 3587.45,4919.02 3591.18,4922.02" disallow="tram rail_urban rail rail_electric rail_fast ship" />
    <edge id="-1079423260#0" from="168836510" to="168837595" priority="10" type="highway.tertiary" numLanes="1" speed="8.33" shape="3555.32,4826.92 3558.61,4836.38 3570.18,4874.40" disallow="tram rail_urban rail rail_electric rail_fast ship" />
    <edge id="-1079423260#1" from="6711008671" to="168836510" priority="10" type="highway.tertiary" numLanes="1" speed="8.33" disallow="tram rail_urban rail rail_electric rail_fast ship" />
    <edge id="-1079423260#2" from="3813952568" to="6711008671" priority="10" type="highway.tertiary" numLanes="1" speed="8.33" shape="3549.15,4801.47 3549.40,4808.27 3551.20,4814.81" disallow="tram rail_urban rail rail_electric rail_fast ship" />
    <edge id="-1087941520" from="1792988838" to="7855333225" priority="11" type="highway.secondary" numLanes="1" speed="13.89" disallow="tram rail_urban rail rail_electric rail_fast ship">
        <param key="ref" value="D 138" />
    </edge>
    <edge id="-1105322615#0" from="162596168" to="162596167" priority="11" type="highway.secondary" numLanes="1" speed="27.78" disallow="tram rail_urban rail rail_electric rail_fast ship">
        <param key="ref" value="D 116" />
    </edge>
    <edge id="-1105322615#1" from="3138673062" to="162596168" priority="11" type="highway.secondary" numLanes="1" speed="27.78" disallow="tram rail_urban rail rail_electric rail_fast ship">
        <param key="ref" value="D 116" />
    </edge>
    <edge id="-1105466452" from="5202608698" to="161616233" priority="11" type="highway.secondary" numLanes="1" speed="27.78" disallow="tram rail_urban rail rail_electric rail_fast ship">
        <param key="ref" value="D 116" />
    </edge>
    <edge id="-1107704947" from="159956171" to="10135218601" priority="10" type="highway.tertiary" numLanes="1" speed="8.33" disallow="tram rail_urban rail rail_electric rail_fast ship" />
    <edge id="-1107704956" from="159953822" to="287571045" priority="11" type="highway.secondary" numLanes="1" speed="8.33" shape="1298.97,3460.57 1289.78,3465.22 1229.47,3495.73 1221.93,3499.40 1216.90,3501.84" disallow="tram rail_urban rail rail_electric rail_fast ship">
        <param key="ref" value="D 417" />
    </edge>
    <edge id="-1113035639#0" from="3668201674" to="6039889828" priority="10" type="highway.tertiary" numLanes="1" speed="8.33" disallow="tram rail_urban rail rail_electric rail_fast ship" />
    <edge id="-1113035639#1" from="6039889829" to="3668201674" priority="10" type="highway.tertiary" numLanes="1" speed="8.33" disallow="tram rail_urban rail rail_electric rail_fast ship" />
    <edge id="-1113035639#2" from="159956169" to="6039889829" priority="10" type="highway.tertiary" numLanes="1" speed="8.33" disallow="tram rail_urban rail rail_electric rail_fast ship" />
    <edge id="-1113035639#3" from="3668201668" to="159956169" priority="10" type="highway.tertiary" numLanes="1" speed="8.33" disallow="tram rail_urban rail rail_electric rail_fast ship" />
    <edge id="-1113035639#4" from="9529323066" to="3668201668" priority="10" type="highway.tertiary" numLanes="1" speed="8.33" shape="848.11,4018.60 846.92,4019.26 831.31,4026.48" disallow="tram rail_urban rail rail_electric rail_fast ship" />
    <edge id="-1113035639#5" from="2295326145" to="9529323066" priority="10" type="highway.tertiary" numLanes="1" speed="8.33" disallow="tram rail_urban rail rail_electric rail_fast ship" />
    <edge id="-1126081369#0" from="1793006511" to="1793006501" priority="10" type="highway.tertiary" numLanes="1" speed="19.44" disallow="tram rail_urban rail rail_electric rail_fast ship">
        <param key="ref" value="D 137" />
    </edge>
    <edge id="-1126081369#1" from="10297202737" to="1793006511" priority="10" type="highway.tertiary" numLanes="1" speed="19.44" shape="3982.51,3642.48 3917.04,3604.60 3841.35,3561.63" disallow="tram rail_urban rail rail_electric rail_fast ship">
        <param key="ref" value="D 137" />
    </edge>
    <edge id="-1160173926" from="1719803047" to="168836484" priority="3" type="highway.residential" numLanes="1" speed="13.89" shape="3103.27,4673.19 3110.29,4662.60 3137.31,4614.51 3145.23,4600.79" disallow="tram rail_urban rail rail_electric rail_fast ship" />
    <edge id="-1173410294#0" from="161496374" to="161496380" priority="3" type="highway.residential" numLanes="1" speed="8.33" disallow="tram rail_urban rail rail_electric rail_fast ship" />
    <edge id="-1173410294#1" from="8818793141" to="161496374" priority="3" type="highway.residential" numLanes="1" speed="8.33" disallow="tram rail_urban rail rail_electric rail_fast ship" />
    <edge id="-1173410294#2" from="161496466" to="8818793141" priority="3" type="highway.residential" numLanes="1" speed="8.33" shape="1032.90,3101.02 1035.93,3104.87 1099.08,3190.45 1110.22,3204.35 1114.13,3209.59" disallow="tram rail_urban rail rail_electric rail_fast ship" />
    <edge id="-11897717#0" from="10781078103" to="168816696" priority="11" type="highway.secondary" numLanes="1" speed="13.89" shape="4393.21,5297.08 4390.72,5303.20 4376.89,5339.73 4370.63,5352.10" disallow="tram rail_urban rail rail_electric rail_fast ship">
        <param key="ref" value="D 138" />
    </edge>
    <edge id="-11897717#1" from="1446640052" to="10781078103" priority="11" type="highway.secondary" numLanes="1" speed="13.89" disallow="tram rail_urban rail rail_electric rail_fast ship">
        <param key="ref" value="D 138" />
    </edge>
    <edge id="-11897717#2" from="1446640047" to="1446640052" priority="11" type="highway.secondary" numLanes="1" speed="13.89" shape="4429.94,5210.44 4423.42,5224.00 4405.88,5266.03" disallow="tram rail_urban rail rail_electric rail_fast ship">
        <param key="ref" value="D 138" />
    </edge>
    <edge id="-1201075195" from="168851586" to="168851316" priority="3" type="highway.residential" numLanes="1" speed="13.89" shape="3789.34,4527.05 3780.01,4535.42 3748.19,4566.64 3706.86,4606.33 3704.41,4609.24" disallow="tram rail_urban rail rail_electric rail_fast ship" />
    <edge id="-128189026#0" from="7581231155" to="159953828" priority="11" type="highway.secondary" numLanes="1" speed="13.89" disallow="tram rail_urban rail rail_electric rail_fast ship">
        <param key="ref" value="D 417" />
    </edge>
    <edge id="-128189026#1" from="162765762" to="7581231155" priority="11" type="highway.secondary" numLanes="1" speed="13.89" disallow="tram rail_urban rail rail_electric rail_fast ship">
        <param key="ref" value="D 417" />
    </edge>
    <edge id="-128189026#2" from="6039889832" to="162765762" priority="11" type="highway.secondary" numLanes="1" speed="13.89" disallow="tram rail_urban rail rail_electric rail_fast ship">
        <param key="ref" value="D 417" />
    </edge>
    <edge id="-128189026#3" from="6039889825" to="6039889832" priority="11" type="highway.secondary" numLanes="1" speed="13.89" disallow="tram rail_urban rail rail_electric rail_fast ship">
        <param key="ref" value="D 417" />
    </edge>
    <edge id="-128189026#4" from="48001958" to="6039889825" priority="11" type="highway.secondary" numLanes="1" speed="13.89" shape="711.38,4069.76 730.98,4042.97 743.38,4022.90" disallow="tram rail_urban rail rail_electric rail_fast ship">
        <param key="ref" value="D 417" />
    </edge>
    <edge id="-128189027#0" from="7831925873" to="3668201656" priority="10" type="highway.tertiary" numLanes="1" speed="8.33" disallow="tram rail_urban rail rail_electric rail_fast ship" />
    <edge id="-128189027#1" from="6039889828" to="7831925873" priority="10" type="highway.tertiary" numLanes="1" speed="8.33" disallow="tram rail_urban rail rail_electric rail_fast ship" />
    <edge id="-130456183#0" from="7556413013" to="207146581" priority="3" type="highway.residential" numLanes="1" speed="13.89" disallow="tram rail_urban rail rail_electric rail_fast ship" />
    <edge id="-130456183#1" from="7556413009" to="7556413013" priority="3" type="highway.residential" numLanes="1" speed="13.89" disallow="tram rail_urban rail rail_electric rail_fast ship" />
    <edge id="-130456183#2" from="11136690264" to="7556413009" priority="3" type="highway.residential" numLanes="1" speed="13.89" disallow="tram rail_urban rail rail_electric rail_fast ship" />
    <edge id="-130456183#3" from="7556413004" to="11136690264" priority="3" type="highway.residential" numLanes="1" speed="13.89" disallow="tram rail_urban rail rail_electric rail_fast ship" />
    <edge id="-130456183#4" from="1436917730" to="7556413004" priority="3" type="highway.residential" numLanes="1" speed="13.89" shape="3418.04,3508.44 3416.88,3515.09 3413.40,3535.01" disallow="tram rail_urban rail rail_electric rail_fast ship" />
    <edge id="-130456965" from="207146581" to="207146574" priority="3" type="highway.residential" numLanes="1" speed="13.89" shape="3386.89,3687.60 3270.82,3680.73 3267.11,3681.28 3263.37,3682.88 3261.55,3684.64 3259.38,3689.52" disallow="tram rail_urban rail rail_electric rail_fast ship" />
    <edge id="-131117191" from="1443536562" to="1443536565" priority="3" type="highway.residential" numLanes="1" speed="13.89" shape="3737.11,4472.56 3733.70,4478.15 3676.22,4537.67" disallow="tram rail_urban rail rail_electric rail_fast ship" />
    <edge id="-131117192" from="168851586" to="1443536562" priority="3" type="highway.residential" numLanes="1" speed="13.89" shape="3789.34,4527.05 3785.44,4522.57 3737.11,4472.56" disallow="tram rail_urban rail rail_electric rail_fast ship" />
    <edge id="-131117193#0" from="7850660582" to="1443536562" priority="3" type="highway.residential" numLanes="1" speed="13.89" disallow="tram rail_urban rail rail_electric rail_fast ship" />
    <edge id="-131117193#1" from="1443569324" to="7850660582" priority="3" type="highway.residential" numLanes="1" speed="13.89" shape="3702.93,4433.44 3703.28,4436.05 3704.28,4438.42 3707.70,4441.92" disallow="tram rail_urban rail rail_electric rail_fast ship" />
    <edge id="-131117193#2" from="1443536562" to="1443569324" priority="3" type="highway.residential" numLanes="1" speed="13.89" shape="3737.11,4472.56 3765.83,4445.03 3767.75,4441.76 3768.83,4437.70 3768.37,4434.24 3766.92,4431.28 3741.21,4405.67 3737.94,4403.43 3734.62,4402.55 3730.45,4402.86 3727.73,4404.25 3705.03,4426.21 3703.65,4429.91 3702.93,4433.44" disallow="tram rail_urban rail rail_electric rail_fast ship" />
    <edge id="-131117194" from="1443569284" to="910372790" priority="3" type="highway.residential" numLanes="1" speed="13.89" disallow="tram rail_urban rail rail_electric rail_fast ship" />
    <edge id="-131447917#0" from="7611824782" to="168815290" priority="11" type="highway.secondary" numLanes="1" speed="13.89" shape="4792.09,5960.34 4718.33,5918.66 4699.07,5907.21 4689.03,5899.43 4680.76,5889.54 4658.41,5861.25" disallow="tram rail_urban rail rail_electric rail_fast ship">
        <param key="ref" value="D 210" />
    </edge>
    <edge id="-131447917#1" from="1446640229" to="7611824782" priority="11" type="highway.secondary" numLanes="1" speed="13.89" shape="4871.06,6013.51 4863.29,6003.34 4857.11,5998.01 4850.86,5993.54 4792.09,5960.34" disallow="tram rail_urban rail rail_electric rail_fast ship">
        <param key="ref" value="D 210" />
    </edge>
    <edge id="-131447930#0" from="10209050224" to="1446640044" priority="10" type="highway.tertiary" numLanes="1" speed="13.89" disallow="tram rail_urban rail rail_electric rail_fast ship">
        <param key="ref" value="D 137" />
    </edge>
    <edge id="-131447930#1" from="241927583" to="10209050224" priority="10" type="highway.tertiary" numLanes="1" speed="13.89" shape="3861.01,5302.71 3864.01,5253.93 3862.41,5235.93 3858.08,5216.90 3852.53,5194.28" disallow="tram rail_urban rail rail_electric rail_fast ship">
        <param key="ref" value="D 137" />
    </edge>
    <edge id="-131447930#2" from="299823134" to="241927583" priority="10" type="highway.tertiary" numLanes="1" speed="13.89" shape="3964.45,5505.33 3959.22,5498.87 3925.53,5451.98 3871.37,5369.90 3866.72,5361.36 3864.12,5354.85 3860.64,5339.72 3859.79,5323.69 3861.01,5302.71" disallow="tram rail_urban rail rail_electric rail_fast ship">
        <param key="ref" value="D 137" />
    </edge>
    <edge id="-131447930#3" from="1446640117" to="299823134" priority="10" type="highway.tertiary" numLanes="1" speed="13.89" shape="4060.85,5627.65 4054.01,5619.45 3964.45,5505.33" disallow="tram rail_urban rail rail_electric rail_fast ship">
        <param key="ref" value="D 137" />
    </edge>
    <edge id="-131447930#4" from="241927586" to="1446640117" priority="10" type="highway.tertiary" numLanes="1" speed="13.89" disallow="tram rail_urban rail rail_electric rail_fast ship">
        <param key="ref" value="D 137" />
    </edge>
    <edge id="-131447930#5" from="1446640120" to="241927586" priority="10" type="highway.tertiary" numLanes="1" speed="13.89" disallow="tram rail_urban rail rail_electric rail_fast ship">
        <param key="ref" value="D 137" />
    </edge>
    <edge id="-131447969" from="241927583" to="566002935" priority="3" type="highway.residential" numLanes="1" speed="13.89" shape="3861.01,5302.71 3885.41,5303.28 3897.12,5307.57" disallow="tram rail_urban rail rail_electric rail_fast ship" />
    <edge id="-132757130" from="432789994" to="287609376" priority="12" type="highway.primary" numLanes="2" speed="19.44" shape="671.43,4118.53 662.52,4129.50 655.13,4137.28 640.12,4151.19 605.57,4182.44" disallow="tram rail_urban rail rail_electric rail_fast ship">
        <param key="ref" value="D 607" />
    </edge>
    <edge id="-1328233777" from="1444721753" to="619133141" priority="11" type="highway.secondary" numLanes="1" speed="13.89" disallow="tram rail_urban rail rail_electric rail_fast ship">
        <param key="ref" value="D 138" />
    </edge>
    <edge id="-1328233778" from="1446640045" to="1446640047" priority="11" type="highway.secondary" numLanes="1" speed="13.89" shape="4439.56,5193.31 4437.20,5197.54 4429.94,5210.44" disallow="tram rail_urban rail rail_electric rail_fast ship">
        <param key="ref" value="D 138" />
    </edge>
    <edge id="-1349606178" from="6162389688" to="12484959406" priority="12" type="highway.primary" numLanes="1" speed="19.44" disallow="tram rail_urban rail rail_electric rail_fast ship">
        <param key="ref" value="D 606" />
    </edge>
    <edge id="-1351888408" from="2310031111" to="178691038" priority="4" type="highway.unclassified" numLanes="1" speed="8.33" disallow="tram rail_urban rail rail_electric rail_fast ship" />
    <edge id="-1351893909" from="1883751000" to="12507557643" priority="12" type="highway.primary" numLanes="2" speed="19.44" shape="1043.54,2779.09 962.86,2738.36 855.66,2683.31" disallow="tram rail_urban rail rail_electric rail_fast ship">
        <param key="ref" value="D 152" />
    </edge>
    <edge id="-135401078#0" from="7589518273" to="161496934" priority="3" type="highway.residential" numLanes="1" speed="13.89" disallow="tram rail_urban rail rail_electric rail_fast ship" />
    <edge id="-135401078#1" from="1486986487" to="7589518273" priority="3" type="highway.residential" numLanes="1" speed="13.89" disallow="tram rail_urban rail rail_electric rail_fast ship" />
    <edge id="-135401519#0" from="161496848" to="161735884" priority="11" type="highway.secondary" numLanes="1" speed="8.33" shape="1462.71,3434.62 1459.58,3432.44 1452.03,3427.52 1446.49,3422.87" disallow="tram rail_urban rail rail_electric rail_fast ship" />
    <edge id="-135401519#1" from="2294646088" to="161496848" priority="11" type="highway.secondary" numLanes="1" speed="8.33" disallow="tram rail_urban rail rail_electric rail_fast ship" />
    <edge id="-135404880#0" from="1487083242" to="1487083349" priority="3" type="highway.residential" numLanes="1" speed="13.89" disallow="tram rail_urban rail rail_electric rail_fast ship" />
    <edge id="-135404880#1" from="1487083248" to="1487083242" priority="3" type="highway.residential" numLanes="1" speed="13.89" shape="2518.58,2998.64 2536.07,2988.91 2546.60,2992.32 2570.78,3045.88 2566.78,3078.05" disallow="tram rail_urban rail rail_electric rail_fast ship" />
    <edge id="-135404887#0" from="1487083242" to="1487083339" priority="3" type="highway.residential" numLanes="1" speed="13.89" disallow="tram rail_urban rail rail_electric rail_fast ship" />
    <edge id="-135404887#1" from="1487083284" to="1487083242" priority="3" type="highway.residential" numLanes="1" speed="13.89" disallow="tram rail_urban rail rail_electric rail_fast ship" />
    <edge id="-135404895#0" from="1487083483" to="1487083284" priority="3" type="highway.residential" numLanes="1" speed="13.89" shape="2519.69,3048.16 2537.32,3086.97 2551.19,3080.16 2554.64,3078.47" disallow="tram rail_urban rail rail_electric rail_fast ship" />
    <edge id="-135404895#1" from="7603491214" to="1487083483" priority="3" type="highway.residential" numLanes="1" speed="13.89" shape="2500.25,3003.80 2502.00,3009.22 2519.69,3048.16" disallow="tram rail_urban rail rail_electric rail_fast ship" />
    <edge id="-135404895#2" from="1487083248" to="7603491214" priority="3" type="highway.residential" numLanes="1" speed="13.89" shape="2518.58,2998.64 2511.11,2996.99 2503.34,2997.61 2500.89,2999.66 2500.25,3003.80" disallow="tram rail_urban rail rail_electric rail_fast ship" />
    <edge id="-135404899#0" from="7849103690" to="1487083452" priority="3" type="highway.residential" numLanes="1" speed="13.89" shape="2708.12,3049.42 2690.76,3047.02 2684.57,3046.14" disallow="tram rail_urban rail rail_electric rail_fast ship" />
    <edge id="-135404899#1" from="7849103697" to="7849103690" priority="3" type="highway.residential" numLanes="1" speed="13.89" disallow="tram rail_urban rail rail_electric rail_fast ship" />
    <edge id="-135404899#2" from="7849103727" to="7849103697" priority="3" type="highway.residential" numLanes="1" speed="13.89" shape="2771.67,3087.75 2774.55,3063.48 2773.23,3059.95 2769.81,3057.94 2735.09,3053.14" disallow="tram rail_urban rail rail_electric rail_fast ship" />
    <edge id="-135404899#3" from="1487083305" to="7849103727" priority="3" type="highway.residential" numLanes="1" speed="13.89" disallow="tram rail_urban rail rail_electric rail_fast ship" />
    <edge id="-135404912#0" from="7603491203" to="1487083449" priority="3" type="highway.residential" numLanes="1" speed="13.89" disallow="tram rail_urban rail rail_electric rail_fast ship" />
    <edge id="-135404912#1" from="1487083339" to="7603491203" priority="3" type="highway.residential" numLanes="1" speed="13.89" disallow="tram rail_urban rail rail_electric rail_fast ship" />
    <edge id="-135404912#2" from="1487083452" to="1487083339" priority="3" type="highway.residential" numLanes="1" speed="13.89" disallow="tram rail_urban rail rail_electric rail_fast ship" />
    <edge id="-135404912#3" from="1487083378" to="1487083452" priority="3" type="highway.residential" numLanes="1" speed="13.89" shape="2693.25,3008.35 2685.69,3041.30 2684.57,3046.14" disallow="tram rail_urban rail rail_electric rail_fast ship" />
    <edge id="-135405634#0" from="10206773450" to="1487101857" priority="4" type="highway.unclassified" numLanes="1" speed="13.89" shape="2989.19,2929.89 2991.19,2924.83 3030.08,2826.14 3032.54,2820.06" disallow="tram rail_urban rail rail_electric rail_fast ship" />
    <edge id="-135405634#1" from="1487101729" to="10206773450" priority="4" type="highway.unclassified" numLanes="1" speed="13.89" shape="2962.35,2995.63 2987.34,2934.59 2989.19,2929.89" disallow="tram rail_urban rail rail_electric rail_fast ship" />
    <edge id="-1370997472#0" from="7581231181" to="160345939" priority="12" type="highway.primary" numLanes="1" speed="13.89" shape="1707.19,4625.03 1687.95,4614.34 1674.29,4606.97 1668.76,4603.57" disallow="tram rail_urban rail rail_electric rail_fast ship">
        <param key="ref" value="D 606" />
    </edge>
    <edge id="-1370997472#1" from="161535206" to="7581231181" priority="12" type="highway.primary" numLanes="1" speed="13.89" disallow="tram rail_urban rail rail_electric rail_fast ship">
        <param key="ref" value="D 606" />
    </edge>
    <edge id="-1372277437#0" from="1792979083" to="1792979075" priority="3" type="highway.residential" numLanes="1" speed="13.89" shape="4348.55,4241.09 4340.71,4248.21 4332.70,4255.50" disallow="tram rail_urban rail rail_electric rail_fast ship" />
    <edge id="-138259821#0" from="162596169" to="3138673062" priority="11" type="highway.secondary" numLanes="1" speed="27.78" disallow="tram rail_urban rail rail_electric rail_fast ship">
        <param key="ref" value="D 116" />
    </edge>
    <edge id="-15092099#0" from="940466788" to="3199861262" priority="10" type="highway.tertiary" numLanes="1" speed="8.33" shape="2016.33,3528.92 2012.76,3527.12 2008.08,3525.68 2003.82,3524.70 2000.76,3524.58" disallow="tram rail_urban rail rail_electric rail_fast ship" />
    <edge id="-15092099#1" from="472320169" to="940466788" priority="10" type="highway.tertiary" numLanes="1" speed="8.33" disallow="tram rail_urban rail rail_electric rail_fast ship" />
    <edge id="-15092099#2" from="482254529" to="472320169" priority="10" type="highway.tertiary" numLanes="1" speed="8.33" shape="2051.12,3523.70 2047.43,3529.99 2044.62,3532.98 2041.34,3535.42 2037.93,3536.32 2033.86,3536.29 2029.66,3535.38 2024.33,3533.13" disallow="tram rail_urban rail rail_electric rail_fast ship" />
    <edge id="-158559917" from="1707415386" to="1707414890" priority="3" type="highway.residential" numLanes="1" speed="13.89" shape="4001.70,4789.23 4006.49,4795.68 4013.37,4800.03" disallow="tram rail_urban rail rail_electric rail_fast ship" />
    <edge id="-158560329#0" from="7834501083" to="1707414142" priority="3" type="highway.residential" numLanes="1" speed="13.89" shape="4023.82,4759.56 4025.51,4755.61 4026.04,4751.74" disallow="tram rail_urban rail rail_electric rail_fast ship" />
    <edge id="-158560329#1" from="7834526986" to="7834501083" priority="3" type="highway.residential" numLanes="1" speed="13.89" shape="4009.15,4779.01 4017.07,4768.15 4023.82,4759.56" disallow="tram rail_urban rail rail_electric rail_fast ship" />
    <edge id="-158560329#2" from="1707415386" to="7834526986" priority="3" type="highway.residential" numLanes="1" speed="13.89" disallow="tram rail_urban rail rail_electric rail_fast ship" />
    <edge id="-158747631" from="1708913356" to="1708913351" priority="3" type="highway.residential" numLanes="1" speed="13.89" shape="3419.03,4137.02 3394.72,4111.47 3386.79,4105.70 3315.45,4062.84 3307.68,4060.70 3266.29,4063.72" disallow="tram rail_urban rail rail_electric rail_fast ship" />
    <edge id="-15917901#0" from="8556639116" to="159953824" priority="11" type="highway.secondary" numLanes="1" speed="8.33" disallow="tram rail_urban rail rail_electric rail_fast ship">
        <param key="ref" value="D 417" />
    </edge>
    <edge id="-15919953#0" from="913607085" to="159953202" priority="3" type="highway.residential" numLanes="1" speed="8.33" disallow="tram rail_urban rail rail_electric rail_fast ship" />
    <edge id="-15919953#1" from="159974360" to="913607085" priority="3" type="highway.residential" numLanes="1" speed="8.33" disallow="tram rail_urban rail rail_electric rail_fast ship" />
    <edge id="-15950274#0" from="4283160070" to="287609348" priority="3" type="highway.residential" numLanes="1" speed="8.33" shape="1697.57,3572.43 1694.54,3574.91 1691.84,3576.91" disallow="tram rail_urban rail rail_electric rail_fast ship" />
    <edge id="-15950274#1" from="160304730" to="4283160070" priority="3" type="highway.residential" numLanes="1" speed="8.33" disallow="tram rail_urban rail rail_electric rail_fast ship" />
    <edge id="-15950274#2" from="4283160069" to="160304730" priority="3" type="highway.residential" numLanes="1" speed="8.33" disallow="tram rail_urban rail rail_electric rail_fast ship" />
    <edge id="-15950274#3" from="160304738" to="4283160069" priority="3" type="highway.residential" numLanes="1" speed="8.33" shape="1782.63,3531.68 1779.84,3531.64 1776.72,3532.20 1771.74,3534.21" disallow="tram rail_urban rail rail_electric rail_fast ship" />
    <edge id="-15950274#4" from="160304733" to="160304738" priority="3" type="highway.residential" numLanes="1" speed="8.33" shape="1799.77,3545.98 1796.65,3539.83 1794.24,3537.23 1790.73,3534.91 1786.94,3533.09 1782.63,3531.68" disallow="tram rail_urban rail rail_electric rail_fast ship" />
    <edge id="-15950274#5" from="6127930156" to="160304733" priority="3" type="highway.residential" numLanes="1" speed="8.33" disallow="tram rail_urban rail rail_electric rail_fast ship" />
    <edge id="-15950274#6" from="159974364" to="6127930156" priority="3" type="highway.residential" numLanes="1" speed="8.33" shape="1806.02,3568.85 1805.49,3566.32 1805.17,3561.80 1804.61,3557.97 1803.30,3553.57" disallow="tram rail_urban rail rail_electric rail_fast ship" />
    <edge id="-16071844#0" from="7581231126" to="161496466" priority="3" type="highway.residential" numLanes="1" speed="8.33" shape="925.89,3134.30 1022.82,3104.03 1032.90,3101.02" disallow="tram rail_urban rail rail_electric rail_fast ship" />
    <edge id="-16071852#0" from="7850616056" to="160345781" priority="3" type="highway.residential" numLanes="1" speed="8.33" shape="1833.27,3926.14 1893.36,3896.42 1895.99,3895.04 1898.61,3893.68" disallow="tram rail_urban rail rail_electric rail_fast ship" />
    <edge id="-16071852#1" from="161494842" to="7850616056" priority="3" type="highway.residential" numLanes="1" speed="8.33" disallow="tram rail_urban rail rail_electric rail_fast ship" />
    <edge id="-16071858" from="161493805" to="161493887" priority="2" type="highway.living_street" numLanes="1" speed="2.78" disallow="tram rail_urban rail rail_electric rail_fast ship" />
    <edge id="-16071859" from="161493899" to="161493893" priority="2" type="highway.living_street" numLanes="1" speed="2.78" shape="1691.53,3697.61 1684.34,3696.48 1662.21,3712.09" disallow="tram rail_urban rail rail_electric rail_fast ship" />
    <edge id="-16071884#0" from="2295277996" to="161494873" priority="3" type="highway.residential" numLanes="1" speed="8.33" shape="1815.90,4307.55 1812.42,4302.78 1807.34,4296.61 1794.05,4288.84 1777.87,4285.61 1767.13,4286.86 1757.41,4290.58 1750.69,4293.16" disallow="tram rail_urban rail rail_electric rail_fast ship" />
    <edge id="-16071884#1" from="161494891" to="2295277996" priority="3" type="highway.residential" numLanes="1" speed="8.33" shape="1812.79,4352.58 1816.96,4345.22 1819.73,4336.68 1821.60,4327.27 1820.00,4317.89 1818.32,4312.02 1815.90,4307.55" disallow="tram rail_urban rail rail_electric rail_fast ship" />
    <edge id="-16071901" from="161496324" to="161496321" priority="3" type="highway.residential" numLanes="1" speed="8.33" disallow="tram rail_urban rail rail_electric rail_fast ship" />
    <edge id="-16071910#0" from="161496413" to="7855500312" priority="2" type="highway.living_street" numLanes="1" speed="2.78" shape="1128.97,3091.38 1120.35,3093.81 1117.80,3099.04 1120.87,3106.68 1125.65,3109.42 1139.89,3106.67" disallow="tram rail_urban rail rail_electric rail_fast ship" />