<?xml version="1.0" encoding="UTF-8"?>

<!-- generated on 2025-04-08 22:55:46 by Eclipse SUMO netconvert Version 1.19.0
<configuration xmlns:xsi="http://www.w3.org/2001/XMLSchema-instance" xsi:noNamespaceSchemaLocation="http://sumo.dlr.de/xsd/netconvertConfiguration.xsd">

    <input>
        <sumo-net-file value="fontainebleau/fontainebleau.net.xml"/>
    </input>

    <output>
        <plain-output-prefix value="fontainebleau/fontainebleau"/>
    </output>

    <processing>
        <geometry.min-radius.fix.railways value="false"/>
        <geometry.max-grade.fix value="false"/>
        <offset.disable-normalization value="true"/>
        <lefthand value="0"/>
    </processing>

    <tls_building>
        <tls.ignore-internal-junction-jam value="1"/>
    </tls_building>

    <junctions>
        <no-turnarounds value="true"/>
        <junctions.corner-detail value="5"/>
        <junctions.limit-turn-speed value="5.50"/>
        <rectangular-lane-cut value="0"/>
    </junctions>

    <pedestrian>
        <walkingareas value="0"/>
    </pedestrian>

</configuration>
-->

<nodes version="1.16" xmlns:xsi="http://www.w3.org/2001/XMLSchema-instance" xsi:noNamespaceSchemaLocation="http://sumo.dlr.de/xsd/nodes_file.xsd">
    <location netOffset="-476116.32,-5357666.89" convBoundary="0.00,-1.47,6425.84,7961.83" origBoundary="2.677156,48.371753,2.764116,48.443455" projParameter="+proj=utm +zone=31 +ellps=WGS84 +datum=WGS84 +units=m +no_defs"/>

    <node id="10001343357" x="4334.70" y="4517.73" type="dead_end"/>
    <node id="10001343359" x="4364.82" y="4571.84" type="dead_end"/>
    <node id="10001343360" x="4367.91" y="4530.92" type="dead_end"/>
    <node id="10001343363" x="4363.44" y="4501.51" type="dead_end"/>
    <node id="10001347349" x="4356.87" y="4581.48" type="dead_end"/>
    <node id="10030422972" x="870.52" y="3668.24" type="priority"/>
    <node id="10030422973" x="872.73" y="3672.78" type="priority"/>
    <node id="10114882386" x="3138.75" y="5310.40" type="priority"/>
    <node id="10116089836" x="2489.02" y="5826.87" type="right_before_left"/>
    <node id="10135218595" x="931.25" y="3975.16" type="priority"/>
    <node id="10135218598" x="933.32" y="3987.25" type="priority"/>
    <node id="10135218601" x="920.69" y="3980.61" type="right_before_left"/>
    <node id="10135218604" x="929.44" y="4004.29" type="priority"/>
    <node id="10135224246" x="740.46" y="3722.53" type="right_before_left"/>
    <node id="10135224264" x="1165.11" y="2774.35" type="priority"/>
    <node id="10135224283" x="2932.03" y="4742.21" type="priority"/>
    <node id="10135224285" x="2937.40" y="4732.15" type="right_before_left"/>
    <node id="10135224288" x="2890.04" y="4724.63" type="priority"/>
    <node id="10135224294" x="2922.09" y="4666.23" type="priority"/>
    <node id="10135224326" x="2969.27" y="4493.14" type="priority"/>
    <node id="10135224329" x="2960.70" y="4485.43" type="priority"/>
    <node id="10135224331" x="2961.90" y="4478.84" type="priority"/>
    <node id="10135224332" x="2964.51" y="4475.87" type="right_before_left"/>
    <node id="10135224334" x="2972.76" y="4474.69" type="priority"/>
    <node id="10135224336" x="2977.96" y="4479.51" type="priority"/>
    <node id="10135224341" x="2973.13" y="4474.92" type="priority"/>
    <node id="10135224361" x="2119.58" y="3852.20" type="priority"/>
    <node id="1017857187" x="2061.11" y="3528.73" type="right_before_left"/>
    <node id="10183462482" x="687.64" y="3068.28" type="dead_end"/>
    <node id="10203489522" x="1468.16" y="3031.44" type="dead_end"/>
    <node id="10203489523" x="1487.29" y="2998.32" type="dead_end"/>
    <node id="10206734313" x="3114.30" y="2907.63" type="right_before_left"/>
    <node id="10206734316" x="3075.50" y="2893.48" type="right_before_left"/>
    <node id="10206736881" x="2561.60" y="2876.51" type="priority"/>
    <node id="10206744940" x="2952.90" y="2978.05" type="priority"/>
    <node id="10206744943" x="3002.20" y="2816.59" type="priority"/>
    <node id="10206744944" x="2772.69" y="2992.57" type="priority"/>
    <node id="10206744947" x="2972.82" y="2931.48" type="right_before_left"/>
    <node id="10206773418" x="3044.97" y="2822.15" type="priority"/>
    <node id="10206773419" x="3041.06" y="2832.76" type="right_before_left"/>
    <node id="10206773422" x="3038.41" y="2839.97" type="right_before_left"/>
    <node id="10206773447" x="3024.20" y="2819.11" type="priority"/>
    <node id="10206773450" x="2989.19" y="2929.89" type="priority"/>
    <node id="10206773454" x="3039.62" y="2821.26" type="priority"/>
    <node id="10206861558" x="3888.80" y="4756.38" type="priority"/>
    <node id="10206861559" x="3923.88" y="4779.66" type="right_before_left"/>
    <node id="10206861560" x="3867.13" y="4786.12" type="priority"/>
    <node id="10206861561" x="3903.69" y="4809.40" type="right_before_left"/>
    <node id="10206861562" x="3849.00" y="4848.92" type="priority"/>
    <node id="10206861564" x="3884.47" y="4844.22" type="right_before_left"/>
    <node id="10206861569" x="3890.23" y="4833.79" type="right_before_left"/>
    <node id="10206861570" x="3855.44" y="4882.77" type="priority"/>
    <node id="10206861571" x="3869.47" y="4861.94" type="right_before_left"/>
    <node id="10206890781" x="3742.28" y="4639.98" type="priority"/>
    <node id="10206890782" x="3719.89" y="4691.85" type="priority"/>
    <node id="10206890784" x="3648.47" y="4633.90" type="dead_end"/>
    <node id="10206890785" x="3678.85" y="4592.73" type="priority"/>
    <node id="10206890786" x="3675.25" y="4597.60" type="dead_end"/>
    <node id="10206890787" x="3644.95" y="4605.05" type="priority"/>
    <node id="10206890792" x="4076.57" y="4952.68" type="priority"/>
    <node id="10206890794" x="3999.75" y="4666.06" type="priority"/>
    <node id="10206890797" x="3959.08" y="4699.51" type="priority"/>
    <node id="10206890803" x="4027.45" y="4569.68" type="priority"/>
    <node id="10206890804" x="4022.83" y="4574.01" type="right_before_left"/>
    <node id="10206890805" x="3994.14" y="4605.22" type="priority"/>
    <node id="10206890815" x="4068.17" y="4712.87" type="priority"/>
    <node id="10206904624" x="4063.14" y="4660.40" type="priority"/>
    <node id="10207069823" x="3857.28" y="4338.63" type="priority"/>
    <node id="10207069824" x="3816.60" y="4380.02" type="priority"/>
    <node id="10207069825" x="3990.65" y="4462.98" type="priority"/>
    <node id="10207069827" x="3943.90" y="4490.75" type="priority"/>
    <node id="10207069828" x="3790.37" y="4283.16" type="priority"/>
    <node id="10207069830" x="3762.76" y="4333.04" type="priority"/>
    <node id="10207069832" x="3668.65" y="4191.03" type="priority" fringe="inner">
        <param key="buffer_stop" value="true"/>
    </node>
    <node id="10207069833" x="3636.32" y="4222.42" type="right_before_left"/>
    <node id="10207069834" x="3633.12" y="4226.36" type="priority"/>
    <node id="10207112366" x="3653.97" y="4139.33" type="priority" fringe="inner">
        <param key="buffer_stop" value="true"/>
    </node>
    <node id="10207112368" x="3640.08" y="4146.03" type="priority"/>
    <node id="10207112369" x="3690.61" y="4088.06" type="priority" fringe="inner">
        <param key="buffer_stop" value="true"/>
    </node>
    <node id="10207112370" x="3641.43" y="4137.24" type="priority"/>
    <node id="10207112371" x="3667.78" y="4103.19" type="priority" fringe="inner">
        <param key="buffer_stop" value="true"/>
    </node>
    <node id="10207112373" x="3644.44" y="4112.79" type="priority"/>
    <node id="10207112374" x="3668.45" y="4076.77" type="priority" fringe="inner">
        <param key="buffer_stop" value="true"/>
    </node>
    <node id="10207112379" x="3657.70" y="4003.83" type="priority"/>
    <node id="10208119614" x="1087.59" y="4524.12" type="priority"/>
    <node id="10208166885" x="1617.83" y="5488.99" type="right_before_left"/>
    <node id="10208166886" x="1639.01" y="5443.83" type="priority"/>
    <node id="10209015214" x="4087.59" y="4963.45" type="priority"/>
    <node id="10209015216" x="4081.04" y="5154.16" type="priority"/>
    <node id="10209050217" x="4017.96" y="5210.20" type="priority"/>
    <node id="10209050224" x="3852.53" y="5194.28" type="priority"/>
    <node id="10209050226" x="3796.07" y="5183.80" type="priority"/>
    <node id="10209050229" x="3754.97" y="5166.45" type="priority"/>
    <node id="10209095162" x="2651.49" y="2906.96" type="priority"/>
    <node id="10209095163" x="2649.27" y="2872.49" type="right_before_left"/>
    <node id="10211490887" x="1841.68" y="4397.42" type="priority"/>
    <node id="10211490888" x="1825.36" y="4375.55" type="priority"/>
    <node id="10212122348" x="1903.89" y="4283.82" type="priority"/>
    <node id="10212122351" x="1897.59" y="4262.45" type="priority"/>
    <node id="10212320238" x="1950.92" y="4356.20" type="priority"/>
    <node id="10212320239" x="1941.09" y="4329.09" type="priority"/>
    <node id="10212320240" x="1964.25" y="4355.02" type="priority"/>
    <node id="10214463162" x="2115.23" y="4101.04" type="priority"/>
    <node id="10214476075" x="2034.70" y="4001.87" type="priority"/>
    <node id="10214476076" x="2050.49" y="3992.15" type="priority"/>
    <node id="10214551488" x="2062.97" y="3915.56" type="priority"/>
    <node id="10214551489" x="2047.29" y="3895.10" type="priority"/>
    <node id="10214551490" x="2051.41" y="3933.90" type="priority"/>
    <node id="10214551491" x="2034.87" y="3913.95" type="priority"/>
    <node id="10214551492" x="2050.93" y="3927.66" type="priority"/>
    <node id="10214551493" x="2036.54" y="3910.52" type="priority"/>
    <node id="10214551496" x="2033.00" y="3979.03" type="priority"/>
    <node id="10214551497" x="2014.64" y="3958.70" type="priority"/>
    <node id="10216499278" x="1937.03" y="3975.33" type="dead_end"/>
    <node id="10216499279" x="1946.10" y="3971.31" type="right_before_left"/>
    <node id="10216529242" x="1828.36" y="3959.83" type="priority"/>
    <node id="10216557501" x="1825.97" y="4068.34" type="dead_end"/>
    <node id="10216869806" x="2016.14" y="4608.10" type="priority"/>
    <node id="10216869808" x="1971.09" y="4589.11" type="priority"/>
    <node id="10216869810" x="2129.57" y="4574.65" type="priority"/>
    <node id="10216869813" x="2064.34" y="4610.33" type="priority"/>
    <node id="10216873627" x="1764.92" y="4459.21" type="priority"/>
    <node id="10216873630" x="1757.04" y="4486.48" type="priority"/>
    <node id="10216873637" x="1786.57" y="4456.60" type="priority"/>
    <node id="10216880991" x="2197.57" y="4430.72" type="priority"/>
    <node id="10216880993" x="2087.78" y="4437.59" type="priority"/>
    <node id="10229291104" x="713.17" y="3138.51" type="priority"/>
    <node id="10229291105" x="718.67" y="3139.69" type="priority"/>
    <node id="10229291106" x="725.26" y="3140.97" type="priority"/>
    <node id="10229291116" x="704.77" y="3232.19" type="priority"/>
    <node id="10229342479" x="791.69" y="3224.52" type="priority"/>
    <node id="10229345887" x="781.89" y="2680.31" type="priority"/>
    <node id="10229345889" x="982.43" y="2936.68" type="priority"/>
    <node id="10229351605" x="738.69" y="3185.77" type="right_before_left"/>
    <node id="10229351607" x="740.03" y="3183.37" type="dead_end"/>
    <node id="10229359082" x="726.53" y="3149.39" type="right_before_left"/>
    <node id="10229359089" x="743.05" y="3177.91" type="priority"/>
    <node id="10238267088" x="650.39" y="2891.72" type="priority"/>
    <node id="10238267089" x="651.33" y="2793.22" type="right_before_left"/>
    <node id="10238355278" x="697.73" y="2825.27" type="priority"/>
    <node id="10238355279" x="758.42" y="2875.28" type="priority"/>
    <node id="10238694508" x="554.95" y="2727.65" type="priority"/>
    <node id="10259276946" x="1481.08" y="3652.40" type="priority"/>
    <node id="10259283452" x="1612.26" y="3730.33" type="priority"/>
    <node id="10259283455" x="1573.66" y="3758.88" type="priority"/>
    <node id="10259439131" x="1346.69" y="3398.67" type="priority"/>
    <node id="10259439133" x="1367.17" y="3435.79" type="priority"/>
    <node id="10259439144" x="1303.71" y="3392.44" type="priority"/>
    <node id="10259439145" x="1293.26" y="3371.68" type="priority"/>
    <node id="10297187195" x="4067.46" y="4142.76" type="right_before_left"/>
    <node id="10297202737" x="3982.51" y="3642.48" type="priority"/>
    <node id="10297202739" x="3987.95" y="3627.33" type="priority"/>
    <node id="10297296673" x="4270.11" y="3911.36" type="priority"/>
    <node id="10302097879" x="1618.95" y="3934.49" type="priority"/>
    <node id="10302097881" x="1636.51" y="3914.64" type="dead_end"/>
    <node id="10302097882" x="1623.18" y="3937.54" type="priority"/>
    <node id="10302097884" x="1635.17" y="3923.52" type="priority"/>
    <node id="10302102144" x="1373.57" y="3463.83" type="priority"/>
    <node id="10302102147" x="1387.95" y="3430.74" type="priority"/>
    <node id="106984016" x="5547.14" y="3691.07" type="priority"/>
    <node id="106984037" x="5720.95" y="3533.52" type="priority"/>
    <node id="10754333430" x="2897.98" y="5514.57" type="right_before_left"/>
    <node id="10763496573" x="1850.13" y="2783.39" type="priority"/>
    <node id="10763496575" x="1848.77" y="2772.45" type="priority"/>
    <node id="10763496578" x="1852.24" y="2746.38" type="priority"/>
    <node id="10781078101" x="4361.86" y="5293.54" type="priority"/>
    <node id="10781078103" x="4393.21" y="5297.08" type="priority"/>
    <node id="10790069619" x="3648.45" y="4571.67" type="right_before_left"/>
    <node id="10790069624" x="3653.01" y="4533.17" type="priority"/>
    <node id="10790069625" x="3634.87" y="4556.68" type="priority"/>
    <node id="10837813315" x="3772.45" y="5413.82" type="right_before_left"/>
    <node id="10867084989" x="1136.99" y="2800.28" type="priority"/>
    <node id="10877834832" x="1954.47" y="2405.76" type="priority"/>
    <node id="10937990557" x="3715.26" y="5052.31" type="dead_end"/>
    <node id="10937990564" x="3711.86" y="4897.29" type="dead_end"/>
    <node id="10957406586" x="3212.82" y="3762.44" type="dead_end"/>
    <node id="11042215920" x="1800.26" y="4637.69" type="priority"/>
    <node id="11042215921" x="1864.75" y="4657.39" type="priority"/>
    <node id="11042215923" x="1865.05" y="4620.13" type="priority"/>
    <node id="11042215924" x="1819.43" y="4639.36" type="priority"/>
    <node id="11042215925" x="1880.25" y="4633.88" type="priority"/>
    <node id="11042215926" x="1823.75" y="4653.89" type="dead_end"/>
    <node id="11042215928" x="1848.38" y="4627.15" type="right_before_left"/>
    <node id="11042215929" x="1854.28" y="4643.07" type="dead_end"/>
    <node id="11042215930" x="1805.35" y="4660.11" type="right_before_left"/>
    <node id="11042215932" x="1818.63" y="4655.62" type="priority"/>
    <node id="11079386034" x="5018.56" y="5385.51" type="priority"/>
    <node id="11136012475" x="3868.59" y="3388.89" type="priority" fringe="inner">
        <param key="buffer_stop" value="true"/>
    </node>
    <node id="11136012476" x="3822.29" y="3390.77" type="right_before_left"/>
    <node id="11136012477" x="3811.58" y="3407.79" type="priority" fringe="inner">
        <param key="buffer_stop" value="true"/>
    </node>
    <node id="11136012478" x="3808.96" y="3382.95" type="right_before_left"/>
    <node id="11136012479" x="3798.66" y="3399.87" type="priority" fringe="inner">
        <param key="buffer_stop" value="true"/>
    </node>
    <node id="11136012480" x="3811.53" y="3365.73" type="priority" fringe="inner">
        <param key="buffer_stop" value="true"/>
    </node>
    <node id="11136012481" x="3803.35" y="3379.67" type="right_before_left"/>
    <node id="11136012482" x="3791.96" y="3372.99" type="right_before_left"/>
    <node id="11136012483" x="3782.23" y="3389.78" type="priority" fringe="inner">
        <param key="buffer_stop" value="true"/>
    </node>
    <node id="11136012484" x="3713.24" y="3326.54" type="right_before_left"/>
    <node id="11136012485" x="3704.15" y="3341.87" type="priority" fringe="inner">
        <param key="buffer_stop" value="true"/>
    </node>
    <node id="11136012487" x="3729.30" y="3298.63" type="right_before_left"/>
    <node id="11136012488" x="3739.96" y="3280.09" type="priority" fringe="inner">
        <param key="buffer_stop" value="true"/>
    </node>
    <node id="11136012489" x="3734.00" y="3309.51" type="right_before_left"/>
    <node id="11136012490" x="3748.44" y="3284.96" type="priority" fringe="inner">
        <param key="buffer_stop" value="true"/>
    </node>
    <node id="11136012491" x="3741.29" y="3316.27" type="right_before_left"/>
    <node id="11136012492" x="3756.82" y="3289.77" type="priority" fringe="inner">
        <param key="buffer_stop" value="true"/>
    </node>
    <node id="11136012493" x="3765.26" y="3294.62" type="priority" fringe="inner">
        <param key="buffer_stop" value="true"/>
    </node>
    <node id="11136012494" x="3749.53" y="3320.88" type="right_before_left"/>
    <node id="11136012495" x="3745.86" y="3345.97" type="right_before_left"/>
    <node id="11136012496" x="3757.84" y="3325.53" type="right_before_left"/>
    <node id="11136012497" x="3773.47" y="3299.35" type="priority" fringe="inner">
        <param key="buffer_stop" value="true"/>
    </node>
    <node id="11136012498" x="3736.51" y="3361.73" type="priority" fringe="inner">
        <param key="buffer_stop" value="true"/>
    </node>
    <node id="11136012499" x="3772.95" y="3334.11" type="right_before_left"/>
    <node id="11136012500" x="3760.82" y="3354.76" type="right_before_left"/>
    <node id="11136012501" x="3753.08" y="3368.52" type="priority" fringe="inner">
        <param key="buffer_stop" value="true"/>
    </node>
    <node id="11136012502" x="3788.16" y="3307.79" type="priority" fringe="inner">
        <param key="buffer_stop" value="true"/>
    </node>
    <node id="11136012503" x="3787.97" y="3342.64" type="right_before_left"/>
    <node id="11136012504" x="3776.30" y="3363.81" type="right_before_left"/>
    <node id="11136021405" x="3766.63" y="3380.21" type="priority" fringe="inner">
        <param key="buffer_stop" value="true"/>
    </node>
    <node id="11136021406" x="3802.92" y="3316.28" type="priority" fringe="inner">
        <param key="buffer_stop" value="true"/>
    </node>
    <node id="11136021407" x="3804.08" y="3352.04" type="right_before_left"/>
    <node id="11136021408" x="3819.33" y="3325.52" type="priority" fringe="inner">
        <param key="buffer_stop" value="true"/>
    </node>
    <node id="11136021409" x="3836.61" y="3371.02" type="right_before_left"/>
    <node id="11136021410" x="3851.40" y="3343.94" type="priority" fringe="inner">
        <param key="buffer_stop" value="true"/>
    </node>
    <node id="11136021411" x="3849.48" y="3378.37" type="right_before_left"/>
    <node id="11136021412" x="3865.39" y="3351.98" type="priority" fringe="inner">
        <param key="buffer_stop" value="true"/>
    </node>
    <node id="11136021413" x="3879.61" y="3360.15" type="priority" fringe="inner">
        <param key="buffer_stop" value="true"/>
    </node>
    <node id="11136021414" x="3650.04" y="3289.64" type="right_before_left"/>
    <node id="11136021415" x="3659.23" y="3273.22" type="priority" fringe="inner">
        <param key="buffer_stop" value="true"/>
    </node>
    <node id="11136679848" x="3371.77" y="4268.33" type="priority"/>
    <node id="11136679849" x="3388.90" y="4312.14" type="priority"/>
    <node id="11136679850" x="3376.14" y="4289.93" type="priority"/>
    <node id="11136679852" x="3362.20" y="4306.19" type="dead_end"/>
    <node id="11136687066" x="3196.85" y="3578.50" type="right_before_left"/>
    <node id="11136687067" x="3197.12" y="3568.75" type="dead_end"/>
    <node id="11136687070" x="3097.41" y="3536.32" type="dead_end"/>
    <node id="11136690264" x="3406.32" y="3579.20" type="priority"/>
    <node id="11136690267" x="3518.72" y="3605.05" type="priority"/>
    <node id="11137131478" x="3218.62" y="3530.66" type="priority"/>
    <node id="11137131479" x="3250.81" y="3534.77" type="priority"/>
    <node id="11137131481" x="3288.48" y="3534.61" type="dead_end"/>
    <node id="11137152420" x="3119.45" y="3443.31" type="priority"/>
    <node id="11137895218" x="3647.67" y="4239.13" type="priority"/>
    <node id="11138281799" x="3437.22" y="4502.14" type="priority"/>
    <node id="11138712868" x="3289.94" y="3525.13" type="dead_end"/>
    <node id="11138712869" x="3322.28" y="3530.72" type="dead_end"/>
    <node id="11138727559" x="3218.30" y="3627.37" type="priority"/>
    <node id="11138727563" x="3158.11" y="3662.96" type="priority"/>
    <node id="11138732657" x="3308.64" y="3619.08" type="dead_end"/>
    <node id="11138732659" x="3275.61" y="3632.08" type="dead_end"/>
    <node id="11138733015" x="3156.61" y="3561.70" type="dead_end"/>
    <node id="11138741051" x="3215.00" y="3606.01" type="priority"/>
    <node id="11138741054" x="3280.32" y="3601.22" type="dead_end"/>
    <node id="11138972715" x="3562.51" y="3641.54" type="right_before_left"/>
    <node id="11138972716" x="3561.33" y="3648.80" type="priority"/>
    <node id="11139537333" x="3758.35" y="4924.46" type="dead_end"/>
    <node id="11139537334" x="3763.36" y="4918.94" type="priority"/>
    <node id="11171661022" x="3686.29" y="5046.70" type="rail_signal"/>
    <node id="11171661023" x="3697.76" y="5081.77" type="rail_signal"/>
    <node id="11171661033" x="4267.55" y="5962.59" type="rail_signal"/>
    <node id="11171966059" x="4044.52" y="3215.88" type="rail_signal"/>
    <node id="11226843365" x="2938.99" y="4647.43" type="priority"/>
    <node id="11226843372" x="3007.14" y="4639.25" type="priority"/>
    <node id="11226843378" x="2973.98" y="4644.98" type="priority"/>
    <node id="11280926612" x="4109.69" y="4660.83" type="right_before_left"/>
    <node id="11280926613" x="4116.61" y="4656.28" type="priority"/>
    <node id="11281017188" x="3699.97" y="5069.19" type="priority"/>
    <node id="11281017193" x="3825.07" y="5125.27" type="priority"/>
    <node id="11285657705" x="1330.06" y="4540.10" type="right_before_left"/>
    <node id="11285657708" x="1334.38" y="4560.40" type="right_before_left"/>
    <node id="11285657709" x="1319.30" y="4587.44" type="right_before_left"/>
    <node id="11285657710" x="1422.06" y="4482.92" type="priority"/>
    <node id="11285657715" x="1447.70" y="4570.57" type="right_before_left"/>
    <node id="11285657716" x="1428.77" y="4559.83" type="priority"/>
    <node id="11285657718" x="1267.07" y="4457.90" type="right_before_left"/>
    <node id="11285657727" x="1449.77" y="4498.80" type="priority"/>
    <node id="11290801459" x="3696.32" y="4392.78" type="right_before_left"/>
    <node id="11290903420" x="3956.81" y="4370.44" type="priority"/>
    <node id="11290906988" x="4390.46" y="4474.86" type="right_before_left"/>
    <node id="11290950771" x="3507.52" y="4269.67" type="priority" fringe="inner">
        <param key="buffer_stop" value="true"/>
    </node>
    <node id="11290950772" x="3526.70" y="4291.12" type="priority" fringe="inner">
        <param key="buffer_stop" value="true"/>
    </node>
    <node id="11290950784" x="3497.50" y="4479.14" type="priority" fringe="inner">
        <param key="buffer_stop" value="true"/>
    </node>
    <node id="11290950785" x="3498.56" y="4458.64" type="right_before_left"/>
    <node id="11290950786" x="3508.53" y="4468.90" type="priority" fringe="inner">
        <param key="buffer_stop" value="true"/>
    </node>
    <node id="11290950787" x="3504.56" y="4452.79" type="priority" fringe="inner">
        <param key="buffer_stop" value="true"/>
    </node>
    <node id="11290950788" x="3487.64" y="4469.28" type="right_before_left"/>
    <node id="11290979096" x="4630.12" y="5704.06" type="priority"/>
    <node id="11290979097" x="4638.73" y="5699.40" type="right_before_left"/>
    <node id="11290979098" x="4665.35" y="5668.94" type="priority" fringe="inner">
        <param key="buffer_stop" value="true"/>
    </node>
    <node id="11290979101" x="4694.99" y="5719.59" type="priority" fringe="inner">
        <param key="buffer_stop" value="true"/>
    </node>
    <node id="11290979111" x="4632.92" y="5750.56" type="right_before_left"/>
    <node id="11290979115" x="4623.67" y="5713.20" type="right_before_left"/>
    <node id="11290979116" x="4632.70" y="5708.57" type="priority"/>
    <node id="11290979117" x="4610.75" y="5719.82" type="right_before_left"/>
    <node id="11290979119" x="4651.63" y="5741.73" type="priority"/>
    <node id="11290979125" x="4572.52" y="5710.32" type="priority"/>
    <node id="11290979129" x="4606.17" y="5662.47" type="priority"/>
    <node id="11290979130" x="4572.74" y="5629.79" type="priority"/>
    <node id="11290979131" x="4594.60" y="5669.18" type="right_before_left"/>
    <node id="11290979133" x="4526.50" y="5626.88" type="priority"/>
    <node id="11290979134" x="4594.88" y="5642.74" type="priority"/>
    <node id="11290979136" x="4626.45" y="5669.57" type="priority"/>
    <node id="11290979159" x="4398.56" y="5561.69" type="right_before_left"/>
    <node id="11290979160" x="4397.69" y="5593.46" type="priority"/>
    <node id="11304965212" x="2993.98" y="4294.54" type="priority"/>
    <node id="11413205143" x="4626.24" y="5550.42" type="right_before_left"/>
    <node id="11495741393" x="1422.97" y="4221.66" type="right_before_left"/>
    <node id="11495741399" x="1398.07" y="4251.69" type="right_before_left"/>
    <node id="11495741405" x="1400.00" y="4285.07" type="priority"/>
    <node id="11495741411" x="1459.19" y="4297.75" type="priority"/>
    <node id="11495741421" x="1406.58" y="4422.46" type="right_before_left"/>
    <node id="11495741423" x="1330.07" y="4387.62" type="right_before_left"/>
    <node id="11495741425" x="1317.39" y="4370.35" type="priority"/>
    <node id="11495741426" x="1312.72" y="4393.42" type="priority"/>
    <node id="11495761557" x="1968.71" y="4012.24" type="priority"/>
    <node id="11546164084" x="4934.08" y="5979.10" type="right_before_left"/>
    <node id="11765738670" x="1616.10" y="3757.16" type="dead_end"/>
    <node id="11765738671" x="1608.89" y="3748.95" type="priority"/>
    <node id="1177670768" x="2963.89" y="4485.16" type="priority"/>
    <node id="1177670881" x="2965.77" y="4479.32" type="priority"/>
    <node id="1177670916" x="2974.23" y="4480.05" type="priority"/>
    <node id="1177670931" x="2964.82" y="4480.36" type="priority"/>
    <node id="1177670952" x="2969.22" y="4489.65" type="priority"/>
    <node id="1177680491" x="1629.76" y="3743.86" type="priority"/>
    <node id="1184283014" x="2897.22" y="4199.15" type="right_before_left"/>
    <node id="1184304769" x="3275.26" y="3087.40" type="priority"/>
    <node id="1184304771" x="3119.15" y="3251.75" type="right_before_left"/>
    <node id="1184304772" x="3360.15" y="3217.18" type="priority"/>
    <node id="1184423625" x="1253.19" y="2985.37" type="dead_end"/>
    <node id="1184423660" x="1290.57" y="2949.23" type="dead_end"/>
    <node id="1184423726" x="1422.12" y="3156.77" type="dead_end"/>
    <node id="1184423728" x="1238.10" y="2849.44" type="dead_end"/>
    <node id="1184423779" x="1417.39" y="2902.98" type="dead_end"/>
    <node id="1184423789" x="1634.54" y="3285.32" type="dead_end"/>
    <node id="1184423795" x="1204.25" y="2884.83" type="dead_end"/>
    <node id="1184451706" x="1560.25" y="3284.78" type="dead_end"/>
    <node id="1184455639" x="2161.33" y="3350.26" type="right_before_left"/>
    <node id="11990192717" x="2336.90" y="4268.64" type="right_before_left"/>
    <node id="1201631494" x="4296.32" y="2962.75" type="priority"/>
    <node id="1201783831" x="4810.11" y="6467.17" type="priority"/>
    <node id="1201783988" x="977.16" y="4224.02" type="priority"/>
    <node id="1201784016" x="887.57" y="4309.32" type="right_before_left"/>
    <node id="1201784066" x="861.72" y="3062.23" type="priority"/>
    <node id="1201784103" x="4572.28" y="5886.29" type="priority"/>
    <node id="1201784206" x="739.57" y="3034.49" type="priority"/>
    <node id="1201784445" x="4502.48" y="5910.13" type="right_before_left"/>
    <node id="12199722030" x="1601.21" y="3499.66" type="right_before_left"/>
    <node id="12199722032" x="1651.72" y="3524.00" type="priority"/>
    <node id="12199722035" x="1573.43" y="3475.83" type="priority"/>
    <node id="1226525995" x="1786.61" y="3051.39" type="priority"/>
    <node id="1236301890" x="1482.80" y="3051.99" type="dead_end"/>
    <node id="12383297831" x="1116.24" y="4492.68" type="right_before_left"/>
    <node id="12437382020" x="2236.23" y="5205.27" type="priority"/>
    <node id="12444048984" x="859.27" y="3295.29" type="priority"/>
    <node id="12484959075" x="1739.25" y="2782.67" type="priority"/>
    <node id="12484959077" x="2528.31" y="2747.94" type="priority"/>
    <node id="12484959078" x="2410.60" y="2752.98" type="priority"/>
    <node id="12484959081" x="2448.53" y="2746.26" type="priority"/>
    <node id="12484959084" x="2517.05" y="2752.45" type="priority"/>
    <node id="12484959085" x="2467.90" y="2754.25" type="priority"/>
    <node id="12484959086" x="2440.35" y="2755.74" type="priority"/>
    <node id="12484959092" x="2470.90" y="2775.01" type="priority"/>
    <node id="12484959100" x="2952.47" y="2730.45" type="priority"/>
    <node id="12484959406" x="2328.33" y="2756.41" type="priority"/>
    <node id="12487039252" x="3881.41" y="2790.88" type="priority"/>
    <node id="12487039254" x="3861.95" y="2785.58" type="priority"/>
    <node id="12487144821" x="3717.59" y="2693.17" type="dead_end"/>
    <node id="12507557643" x="855.66" y="2683.31" type="priority"/>
    <node id="12507557650" x="784.75" y="2642.47" type="priority"/>
    <node id="12538879627" x="3705.34" y="4883.25" type="priority"/>