<?xml version="1.0" encoding="UTF-8"?>

<!-- generated on 2025-04-04 16:23:39 by Eclipse SUMO netconvert Version 1.19.0
<configuration xmlns:xsi="http://www.w3.org/2001/XMLSchema-instance" xsi:noNamespaceSchemaLocation="http://sumo.dlr.de/xsd/netconvertConfiguration.xsd">

    <input>
        <sumo-net-file value="provins/provins.net.xml"/>
    </input>

    <output>
        <plain-output-prefix value="provins/provins"/>
    </output>

    <processing>
        <geometry.min-radius.fix.railways value="false"/>
        <geometry.max-grade.fix value="false"/>
        <offset.disable-normalization value="true"/>
        <lefthand value="0"/>
    </processing>

    <tls_building>
        <tls.ignore-internal-junction-jam value="1"/>
    </tls_building>

    <junctions>
        <no-turnarounds value="true"/>
        <junctions.corner-detail value="5"/>
        <junctions.limit-turn-speed value="5.50"/>
        <rectangular-lane-cut value="0"/>
    </junctions>

    <pedestrian>
        <walkingareas value="0"/>
    </pedestrian>

</configuration>
-->

<edges version="1.16" xmlns:xsi="http://www.w3.org/2001/XMLSchema-instance" xsi:noNamespaceSchemaLocation="http://sumo.dlr.de/xsd/edges_file.xsd">
    <location netOffset="-519338.38,-5375753.89" convBoundary="0.00,0.00,5287.68,9052.27" origBoundary="3.262136,48.534468,3.334037,48.615847" projParameter="+proj=utm +zone=31 +ellps=WGS84 +datum=WGS84 +units=m +no_defs"/>

    <edge id="-1002402283" from="9251296460" to="5778604496" priority="1" type="highway.service" numLanes="1" speed="5.56" shape="3199.76,1261.16 3187.93,1248.37 3180.67,1246.83" allow="pedestrian delivery bicycle"/>
    <edge id="-1023728248" from="5327152049" to="5327255631" priority="1" type="highway.track" numLanes="1" speed="5.56" shape="1462.00,5071.87 1537.90,4965.49 1563.81,4913.31 1582.11,4833.29 1566.98,4751.17 1542.65,4698.22 1508.44,4640.50 1453.55,4607.55 1281.04,4481.69" allow="pedestrian motorcycle moped bicycle"/>
    <edge id="-1024000539#0" from="1687124785" to="430921309" priority="3" type="highway.residential" numLanes="1" speed="13.89" shape="2953.57,3281.41 3090.92,3255.99 3096.33,3256.16 3101.82,3257.16 3106.21,3259.14 3110.13,3262.16 3125.70,3281.20" disallow="tram rail_urban rail rail_electric rail_fast ship"/>
    <edge id="-1024000539#1" from="3340881357" to="1687124785" priority="3" type="highway.residential" numLanes="1" speed="13.89" disallow="tram rail_urban rail rail_electric rail_fast ship"/>
    <edge id="-1024000539#2" from="430920519" to="3340881357" priority="3" type="highway.residential" numLanes="1" speed="13.89" shape="2818.42,3310.28 2823.95,3309.25 2849.27,3302.09" disallow="tram rail_urban rail rail_electric rail_fast ship"/>
    <edge id="-1024000539#3" from="3340881368" to="430920519" priority="3" type="highway.residential" numLanes="1" speed="13.89" shape="2772.08,3319.36 2812.48,3311.07 2818.42,3310.28" disallow="tram rail_urban rail rail_electric rail_fast ship"/>
    <edge id="-1024000543" from="3974640366" to="6333738373" priority="1" type="highway.track" numLanes="1" speed="5.56" shape="2840.23,3939.06 2836.03,3946.91 2829.59,3950.43 2799.18,3959.39 2767.79,3966.56 2710.12,3987.65 2629.85,4023.05" allow="pedestrian motorcycle moped bicycle"/>
    <edge id="-1024000544" from="9442763183" to="9442763198" priority="1" type="highway.track" numLanes="1" speed="5.56" shape="2321.40,4049.71 2334.58,4062.93 2340.31,4065.82 2357.33,4063.22 2369.90,4062.38 2385.43,4063.82 2395.90,4068.31 2417.01,4084.07 2419.85,4090.89 2420.22,4099.17 2416.38,4117.41 2417.55,4123.42 2410.19,4133.37 2405.60,4144.10 2407.25,4152.68 2417.59,4166.34" allow="pedestrian motorcycle moped bicycle"/>
    <edge id="-1024000546" from="9442763201" to="9442763205" priority="1" type="highway.service" numLanes="1" speed="5.56" shape="2106.04,4170.18 2111.84,4177.99 2113.30,4183.82 2112.39,4190.42 2089.85,4226.76" allow="pedestrian delivery bicycle"/>
    <edge id="-1024000548" from="423413664" to="423413660" priority="4" type="highway.unclassified" numLanes="1" speed="13.89" shape="2012.17,4078.86 1991.90,4068.83 1973.49,4059.90 1837.35,4002.73 1832.71,3997.70" disallow="tram rail_urban rail rail_electric rail_fast ship"/>
    <edge id="-1024000560" from="9442787140" to="9442787141" priority="1" type="highway.service" numLanes="1" speed="5.56" allow="pedestrian delivery bicycle"/>
    <edge id="-1024000561" from="9442787143" to="9442787144" priority="1" type="highway.service" numLanes="1" speed="5.56" allow="pedestrian delivery bicycle"/>
    <edge id="-1024000562" from="9442787145" to="9442787146" priority="1" type="highway.service" numLanes="1" speed="5.56" allow="pedestrian delivery bicycle"/>
    <edge id="-1024000564#0" from="9442787147" to="9442787167" priority="1" type="highway.service" numLanes="1" speed="5.56" shape="2613.10,3452.81 2611.74,3451.31 2609.87,3450.66 2605.36,3450.70 2600.41,3452.75 2597.33,3455.50 2595.69,3459.49 2596.01,3464.77 2603.75,3483.48 2606.85,3489.28 2611.23,3493.04" allow="pedestrian delivery bicycle"/>
    <edge id="-1024000564#1" from="cluster_9442787154_9442787166" to="9442787147" priority="1" type="highway.service" numLanes="1" speed="5.56" shape="2626.04,3487.15 2615.09,3455.03 2613.10,3452.81" allow="pedestrian delivery bicycle"/>
    <edge id="-1024000567" from="9442787177" to="9442787175" priority="1" type="highway.service" numLanes="1" speed="5.56" shape="2753.49,3625.60 2747.79,3628.63 2745.44,3634.93 2724.21,3642.38" allow="pedestrian delivery bicycle"/>
    <edge id="-1024000569" from="9442787183" to="9442787184" priority="1" type="highway.service" numLanes="1" speed="5.56" allow="pedestrian delivery bicycle"/>
    <edge id="-1025279530" from="2511985649" to="9453489054" priority="1" type="highway.track" numLanes="1" speed="5.56" shape="1137.28,768.49 1132.69,779.45 1186.28,795.73 1252.97,830.52 1349.00,881.89" allow="pedestrian motorcycle moped bicycle"/>
    <edge id="-1030298899#0" from="9497470968" to="9497470970" priority="1" type="highway.service" numLanes="1" speed="5.56" shape="2125.63,2077.40 2127.94,2065.51 2132.51,2057.90 2139.46,2051.27 2182.44,2021.19 2197.37,2013.17" allow="pedestrian delivery bicycle"/>
    <edge id="-1030298899#1" from="9497470967" to="9497470968" priority="1" type="highway.service" numLanes="1" speed="5.56" shape="2165.54,2067.55 2132.51,2089.09 2125.63,2077.40" allow="pedestrian delivery bicycle"/>
    <edge id="-1030298900" from="9497470969" to="9497470968" priority="1" type="highway.service" numLanes="1" speed="5.56" allow="pedestrian delivery bicycle"/>
    <edge id="-1030298901" from="9497470971" to="9497470970" priority="1" type="highway.service" numLanes="1" speed="5.56" shape="2260.47,1971.49 2217.38,2000.76 2197.37,2013.17" allow="pedestrian delivery bicycle"/>
    <edge id="-1030298902" from="9497470974" to="9497470975" priority="1" type="highway.service" numLanes="1" speed="5.56" allow="pedestrian delivery bicycle"/>
    <edge id="-1030298903" from="9497470977" to="9497470975" priority="1" type="highway.service" numLanes="1" speed="5.56" shape="2196.54,2080.53 2223.96,2061.35 2214.87,2047.20" allow="pedestrian delivery bicycle"/>
    <edge id="-1030298905#1" from="9497470970" to="cluster_9497470958_9497470959" priority="1" type="highway.service" numLanes="1" speed="5.56" shape="2197.37,2013.17 2206.27,2022.28 2225.37,2024.32 2241.22,2028.32" allow="pedestrian delivery bicycle"/>
    <edge id="-1030298907" from="9497470975" to="cluster_9497470958_9497470959" priority="1" type="highway.service" numLanes="1" speed="5.56" shape="2214.87,2047.20 2227.62,2038.27 2241.22,2028.32" allow="pedestrian delivery bicycle"/>
    <edge id="-1042625787" from="6100271257" to="6100271258" priority="1" type="highway.service" numLanes="1" speed="5.56" allow="pedestrian delivery bicycle"/>
    <edge id="-1057740844" from="9719060052" to="9719060053" priority="1" type="highway.service" numLanes="1" speed="5.56" allow="pedestrian delivery bicycle"/>
    <edge id="-1057740845" from="9719060055" to="9719060057" priority="1" type="highway.service" numLanes="1" speed="5.56" shape="1637.40,2667.12 1633.58,2722.50 1631.47,2734.25" allow="pedestrian delivery bicycle"/>
    <edge id="-1057740846" from="9719060058" to="9719060060" priority="1" type="highway.service" numLanes="1" speed="5.56" shape="1661.60,2624.03 1674.02,2651.66 1686.10,2676.57" allow="pedestrian delivery bicycle"/>
    <edge id="-1057740847" from="9719060061" to="9719060064" priority="1" type="highway.service" numLanes="1" speed="5.56" shape="3135.06,3450.07 3125.77,3421.42 3117.84,3402.15 3111.85,3391.62" allow="pedestrian delivery bicycle"/>
    <edge id="-1057740848" from="9719060065" to="9719060069" priority="1" type="highway.service" numLanes="1" speed="5.56" shape="3161.89,3410.47 3154.79,3379.31 3151.33,3366.13 3146.71,3357.18 3140.05,3352.28" allow="pedestrian delivery bicycle"/>
    <edge id="-1057740849" from="9719060070" to="9719060073" priority="1" type="highway.service" numLanes="1" speed="5.56" shape="2907.47,3192.92 2924.91,3187.46 2952.33,3182.04 2954.55,3181.66" allow="pedestrian delivery bicycle"/>
    <edge id="-1057740852" from="9719060090" to="9719060095" priority="1" type="highway.service" numLanes="1" speed="5.56" shape="3373.66,2849.36 3375.68,2862.24 3378.17,2871.72" allow="pedestrian delivery bicycle"/>
    <edge id="-1057740853#0" from="9719060095" to="9719060098" priority="1" type="highway.service" numLanes="1" speed="5.56" shape="3378.17,2871.72 3373.85,2877.43 3368.17,2897.98 3407.19,2910.04" allow="pedestrian delivery bicycle"/>
    <edge id="-1057740853#1" from="9719060092" to="9719060095" priority="1" type="highway.service" numLanes="1" speed="5.56" shape="3410.34,2897.24 3397.54,2890.55 3389.60,2885.00 3378.17,2871.72" allow="pedestrian delivery bicycle"/>
    <edge id="-1057740854#0" from="9719060098" to="9719060103" priority="1" type="highway.service" numLanes="1" speed="5.56" shape="3407.19,2910.04 3394.08,2963.70 3386.14,2981.67 3370.73,2995.26" allow="pedestrian delivery bicycle"/>
    <edge id="-1057740854#1" from="9719060092" to="9719060098" priority="1" type="highway.service" numLanes="1" speed="5.56" allow="pedestrian delivery bicycle"/>
    <edge id="-1057740854#2" from="9719060099" to="9719060092" priority="1" type="highway.service" numLanes="1" speed="5.56" allow="pedestrian delivery bicycle"/>
    <edge id="-1057740855" from="9719060104" to="9719060107" priority="1" type="highway.service" numLanes="1" speed="5.56" shape="3436.91,3139.14 3439.45,3073.73 3436.37,3064.99 3437.99,3020.00" allow="pedestrian delivery bicycle"/>
    <edge id="-1057740856" from="9719060108" to="9719060110" priority="1" type="highway.service" numLanes="1" speed="5.56" shape="3236.31,3034.83 3269.38,3036.52 3307.99,3036.68" allow="pedestrian delivery bicycle"/>
    <edge id="-1057740862#0" from="9719107931" to="9719107937" priority="1" type="highway.service" numLanes="1" speed="5.56" shape="3191.76,3091.54 3178.45,3092.07 3144.14,3096.12 3135.55,3092.30 3128.09,3089.46 3120.72,3089.18 3118.72,3089.47 3106.75,3091.14 3102.28,3091.77" allow="pedestrian delivery bicycle"/>
    <edge id="-1057740862#1" from="9719107929" to="9719107931" priority="1" type="highway.service" numLanes="1" speed="5.56" shape="3219.17,3116.31 3216.21,3087.64 3191.76,3091.54" allow="pedestrian delivery bicycle"/>
    <edge id="-1057740862#2" from="9719107931" to="9719107929" priority="1" type="highway.service" numLanes="1" speed="5.56" shape="3191.76,3091.54 3194.32,3118.82 3219.17,3116.31" allow="pedestrian delivery bicycle"/>
    <edge id="-1057740867" from="9719107946" to="9719107948" priority="1" type="highway.service" numLanes="1" speed="5.56" shape="3381.95,2732.08 3387.56,2732.46 3411.23,2734.98" allow="pedestrian delivery bicycle"/>
    <edge id="-1057740868" from="9719107949" to="9719107950" priority="1" type="highway.service" numLanes="1" speed="5.56" allow="pedestrian delivery bicycle"/>
    <edge id="-1057740869#0" from="9719107950" to="9719107952" priority="1" type="highway.service" numLanes="1" speed="5.56" allow="pedestrian delivery bicycle"/>
    <edge id="-1057740869#1" from="9719107951" to="9719107950" priority="1" type="highway.service" numLanes="1" speed="5.56" allow="pedestrian delivery bicycle"/>
    <edge id="-1057740870#0" from="9719107948" to="9719107956" priority="1" type="highway.service" numLanes="1" speed="5.56" shape="3411.23,2734.98 3411.28,2733.43 3412.93,2681.59 3415.88,2667.21" allow="pedestrian delivery bicycle"/>
    <edge id="-1057740870#1" from="9719107952" to="9719107948" priority="1" type="highway.service" numLanes="1" speed="5.56" allow="pedestrian delivery bicycle"/>
    <edge id="-1057740870#2" from="9719107953" to="9719107952" priority="1" type="highway.service" numLanes="1" speed="5.56" allow="pedestrian delivery bicycle"/>
    <edge id="-1057740872" from="9719107978" to="9719107979" priority="1" type="highway.service" numLanes="1" speed="5.56" allow="pedestrian delivery bicycle"/>
    <edge id="-1057740873" from="9719107962" to="9719107978" priority="1" type="highway.service" numLanes="1" speed="5.56" allow="pedestrian delivery bicycle"/>
    <edge id="-1057740875" from="429478913" to="9719107988" priority="1" type="highway.service" numLanes="1" speed="5.56" shape="2471.96,2163.64 2489.96,2156.77 2497.39,2155.62 2501.84,2157.40 2558.92,2218.73 2560.45,2220.84 2560.64,2223.23 2560.21,2226.06 2557.82,2229.22 2532.37,2249.45" allow="pedestrian delivery bicycle"/>
    <edge id="-1057740876" from="9719107989" to="9719107999" priority="4" type="highway.unclassified" numLanes="1" speed="13.89" shape="1893.06,1863.39 1853.12,1813.61 1841.38,1803.10 1817.23,1790.47 1774.52,1766.05 1760.35,1754.99 1749.02,1742.41 1738.11,1721.79 1725.79,1694.96 1717.60,1673.76" disallow="tram rail_urban rail rail_electric rail_fast ship"/>
    <edge id="-1057740877#0" from="10152611762" to="9719108001" priority="4" type="highway.unclassified" numLanes="1" speed="8.33" disallow="tram rail_urban rail rail_electric rail_fast ship"/>
    <edge id="-1057740877#1" from="10152611763" to="10152611762" priority="4" type="highway.unclassified" numLanes="1" speed="8.33" disallow="tram rail_urban rail rail_electric rail_fast ship"/>
    <edge id="-1057740877#2" from="cluster_10092616463_10092616465_9719108000" to="10152611763" priority="4" type="highway.unclassified" numLanes="1" speed="8.33" shape="3407.70,1609.14 3412.97,1609.15 3416.36,1609.16" disallow="tram rail_urban rail rail_electric rail_fast ship"/>
    <edge id="-1057740879" from="9719108001" to="9719108002" priority="4" type="highway.unclassified" numLanes="1" speed="13.89" disallow="tram rail_urban rail rail_electric rail_fast ship"/>
    <edge id="-1057740880#0" from="9719108002" to="9719108008" priority="4" type="highway.unclassified" numLanes="1" speed="13.89" shape="3532.92,1392.64 3381.60,1344.49 3360.64,1337.35" disallow="tram rail_urban rail rail_electric rail_fast ship"/>
    <edge id="-1057740880#1" from="9719108003" to="9719108002" priority="4" type="highway.unclassified" numLanes="1" speed="13.89" disallow="tram rail_urban rail rail_electric rail_fast ship"/>
    <edge id="-106219259" from="1222774761" to="1222774784" priority="4" type="highway.unclassified" numLanes="1" speed="13.89" shape="2600.52,739.84 2572.31,674.04 2563.61,656.77 2557.20,644.30 2551.37,635.80 2543.48,624.21 2517.33,592.57 2473.41,541.74 2463.71,530.50 2416.61,459.20 2398.44,436.15 2377.84,414.10" disallow="tram rail_urban rail rail_electric rail_fast ship"/>
    <edge id="-106219260#0" from="2466427463" to="1222774761" priority="1" type="highway.track" numLanes="1" speed="5.56" shape="2762.11,669.98 2722.31,690.78 2696.82,704.84 2680.20,714.29 2674.04,717.50 2666.23,721.10 2659.03,723.87 2650.06,726.75 2632.15,731.65 2600.52,739.84" allow="pedestrian motorcycle moped bicycle"/>
    <edge id="-106219260#1" from="1222774765" to="2466427463" priority="1" type="highway.track" numLanes="1" speed="5.56" shape="3290.30,547.13 3267.74,541.33 3255.28,538.63 3245.14,537.41 3230.05,536.92 3213.76,537.15 3194.49,536.62 3177.65,537.30 3162.68,538.71 3154.02,539.98 3145.83,541.87 3124.78,549.09 3104.17,557.17 3083.92,565.31 3065.75,572.99 3049.37,579.37 3037.18,583.86 3028.06,586.59 3017.93,588.90 3005.02,591.15 2989.88,592.74 2970.78,593.88 2954.07,594.36 2938.60,594.47 2923.98,594.24 2913.71,594.20 2905.84,594.88 2898.29,596.77 2886.16,601.76 2828.30,632.63 2762.11,669.98" allow="pedestrian motorcycle moped bicycle"/>
    <edge id="-1066214627" from="9790998977" to="9790998978" priority="1" type="highway.service" numLanes="1" speed="5.56" allow="pedestrian delivery bicycle"/>
    <edge id="-1066214628#0" from="9790998976" to="9790998981" priority="1" type="highway.service" numLanes="1" speed="5.56" allow="pedestrian delivery bicycle"/>
    <edge id="-1066214628#1" from="9790998978" to="9790998976" priority="1" type="highway.service" numLanes="1" speed="5.56" allow="pedestrian delivery bicycle"/>
    <edge id="-1066214628#2" from="9790998979" to="9790998978" priority="1" type="highway.service" numLanes="1" speed="5.56" shape="2873.00,3177.87 2818.51,3194.53 2820.26,3204.90" allow="pedestrian delivery bicycle"/>
    <edge id="-1066214629" from="9790998982" to="9790998983" priority="1" type="highway.service" numLanes="1" speed="5.56" allow="pedestrian delivery bicycle"/>
    <edge id="-1066214630" from="430939369" to="9790998984" priority="1" type="highway.service" numLanes="1" speed="5.56" allow="pedestrian delivery bicycle"/>
    <edge id="-1066214634" from="430938925" to="9790998998" priority="1" type="highway.service" numLanes="1" speed="5.56" shape="2640.97,3725.73 2619.02,3731.30 2608.50,3738.37 2598.28,3745.63 2582.42,3754.15 2560.14,3760.88 2540.13,3764.54 2531.62,3764.21" allow="pedestrian delivery bicycle"/>
    <edge id="-1066214645" from="9442787176" to="9790999497" priority="1" type="highway.service" numLanes="1" speed="5.56" shape="2806.48,3605.73 2789.02,3599.88 2776.28,3565.99" allow="pedestrian delivery bicycle"/>
    <edge id="-1066214647#0" from="9790999505" to="3340881679" priority="1" type="highway.service" numLanes="1" speed="5.56" shape="2890.10,3732.37 2899.30,3734.48 2912.39,3734.01" allow="pedestrian delivery bicycle"/>
    <edge id="-1066214647#1" from="9790999504" to="9790999505" priority="1" type="highway.service" numLanes="1" speed="5.56" allow="pedestrian delivery bicycle"/>
    <edge id="-1079723589" from="9897114268" to="9897114272" priority="1" type="highway.service" numLanes="1" speed="5.56" shape="1698.73,1173.25 1731.96,1194.54 1743.70,1192.96 1761.52,1204.13 1757.08,1210.76" allow="pedestrian delivery bicycle"/>
    <edge id="-1079723591" from="cluster_477356672_4983153143" to="9897114285" priority="4" type="highway.unclassified" numLanes="1" speed="13.89" shape="1855.19,1273.18 1847.31,1267.98 1808.62,1243.45" disallow="tram rail_urban rail rail_electric rail_fast ship"/>
    <edge id="-1079723592" from="9897114280" to="9897114285" priority="1" type="highway.service" numLanes="1" speed="5.56" shape="1725.08,1246.87 1749.93,1219.04 1778.07,1239.17 1787.18,1239.11 1800.67,1244.54 1808.62,1243.45" allow="pedestrian delivery bicycle"/>
    <edge id="-1079723593" from="9897114286" to="9897114302" priority="1" type="highway.service" numLanes="1" speed="5.56" shape="1712.72,1325.03 1718.18,1331.62 1712.51,1341.96" allow="pedestrian delivery bicycle"/>
    <edge id="-1079723596" from="9897114298" to="9897114302" priority="4" type="highway.unclassified" numLanes="1" speed="13.89" shape="1640.43,1280.01 1634.56,1289.56 1644.88,1296.72 1688.95,1327.27 1708.77,1339.63 1712.51,1341.96" disallow="tram rail_urban rail rail_electric rail_fast ship"/>
    <edge id="-1079723598" from="9897114305" to="9897114307" priority="1" type="highway.service" numLanes="1" speed="5.56" shape="1709.25,1382.02 1724.45,1403.34 1734.72,1411.57" allow="pedestrian delivery bicycle"/>
    <edge id="-1079723600#0" from="9897124719" to="9897124723" priority="1" type="highway.service" numLanes="1" speed="5.56" allow="pedestrian delivery bicycle"/>
    <edge id="-1079723600#1" from="9897124721" to="9897124719" priority="1" type="highway.service" numLanes="1" speed="5.56" shape="1993.51,1224.19 1979.00,1240.03 1941.06,1209.10" allow="pedestrian delivery bicycle"/>
    <edge id="-1079723600#2" from="9897124719" to="9897124721" priority="1" type="highway.service" numLanes="1" speed="5.56" shape="1941.06,1209.10 1953.64,1193.45 1993.51,1224.19" allow="pedestrian delivery bicycle"/>
    <edge id="-1079723603" from="5263712552" to="1766536971" priority="10" type="highway.tertiary" numLanes="1" speed="22.22" disallow="tram rail_urban rail rail_electric rail_fast ship">
        <param key="ref" value="D 1e"/>
    </edge>
    <edge id="-1079723609#0" from="9897124744" to="cluster_2511985648_9897124748" priority="1" type="highway.service" numLanes="1" speed="5.56" shape="1882.87,1217.01 1889.68,1222.52 1895.92,1222.20 1901.68,1227.02" allow="pedestrian delivery bicycle"/>
    <edge id="-1079723609#1" from="9897124745" to="9897124744" priority="1" type="highway.service" numLanes="1" speed="5.56" allow="pedestrian delivery bicycle"/>
    <edge id="-1088466835#0" from="9972369474" to="9972369475" priority="1" type="highway.service" numLanes="1" speed="5.56" allow="pedestrian delivery bicycle"/>
    <edge id="-1088466835#1" from="9972369472" to="9972369474" priority="1" type="highway.service" numLanes="1" speed="5.56" shape="2623.68,2255.07 2634.92,2264.79 2690.46,2298.55" allow="pedestrian delivery bicycle"/>
    <edge id="-1088466838#0" from="cluster_1663593028_9972395432" to="9972369512" priority="10" type="highway.tertiary" numLanes="1" speed="22.22" shape="2941.21,2387.82 2933.39,2385.81" disallow="tram rail_urban rail rail_electric rail_fast ship"/>
    <edge id="-1088466839" from="9972369489" to="9972369490" priority="1" type="highway.service" numLanes="1" speed="5.56" allow="pedestrian delivery bicycle"/>
    <edge id="-1088466840#1" from="9972369490" to="cluster_9972369493_9972369498" priority="1" type="highway.service" numLanes="1" speed="5.56" shape="2896.79,2363.69 2895.09,2371.37" allow="pedestrian delivery bicycle"/>
    <edge id="-1088466840#2" from="9972369491" to="9972369490" priority="1" type="highway.service" numLanes="1" speed="5.56" shape="2928.18,2351.97 2900.82,2345.55 2896.79,2363.69" allow="pedestrian delivery bicycle"/>
    <edge id="-1088466849" from="9972395332" to="9972395333" priority="1" type="highway.service" numLanes="1" speed="5.56" allow="pedestrian delivery bicycle"/>
    <edge id="-1088466873" from="9972395452" to="cluster_4167516031_9972395456" priority="1" type="highway.track" numLanes="1" speed="5.56" shape="2825.81,2268.10 2831.47,2262.40 2838.89,2262.53 2884.57,2274.85 2956.47,2296.63" allow="pedestrian motorcycle moped bicycle"/>
    <edge id="-1102935201" from="cluster_2511999113_418610137" to="2511999107" priority="12" type="highway.primary" numLanes="1" speed="13.89" shape="1505.96,1539.10 1521.93,1556.83" disallow="tram rail_urban rail rail_electric rail_fast ship">
        <param key="ref" value="D 403"/>
    </edge>
    <edge id="-1102935205" from="2010682070" to="cluster_10092616463_10092616465_9719108000" priority="11" type="highway.secondary" numLanes="1" speed="27.78" shape="3429.40,1740.91 3427.89,1733.74 3418.80,1702.87 3403.38,1649.52 3395.93,1623.41" disallow="tram rail_urban rail rail_electric rail_fast ship">
        <param key="ref" value="D 1d"/>
    </edge>
    <edge id="-1109771198#0" from="cluster_10152611637_1687286936_9719107957" to="429515276" priority="3" type="highway.residential" numLanes="1" speed="13.89" shape="2615.00,2780.24 2615.83,2784.89 2617.08,2799.33 2616.79,2811.37" disallow="tram rail_urban rail rail_electric rail_fast ship"/>
    <edge id="-1109771199#0" from="10152611638" to="cluster_10152611637_1687286936_9719107957" priority="1" type="highway.service" numLanes="1" speed="5.56" shape="2630.81,2772.74 2615.00,2780.24" allow="pedestrian delivery bicycle"/>
    <edge id="-1109771199#1" from="12018562142" to="10152611638" priority="1" type="highway.service" numLanes="1" speed="5.56" shape="2618.54,2762.19 2624.81,2759.48 2630.81,2772.74" allow="pedestrian delivery bicycle"/>
    <edge id="-1109771199#2" from="cluster_12018562138_12018562139" to="12018562142" priority="1" type="highway.service" numLanes="1" speed="5.56" shape="2605.21,2730.85 2618.54,2762.19" allow="pedestrian delivery bicycle"/>
    <edge id="-1109771199#4" from="10152611639" to="cluster_12018562138_12018562139" priority="1" type="highway.service" numLanes="1" speed="5.56" shape="2620.90,2729.96 2615.55,2732.73 2612.46,2726.80" allow="pedestrian delivery bicycle"/>
    <edge id="-1109772710" from="10152611760" to="10152611759" priority="12" type="highway.primary" numLanes="1" speed="27.78" shape="3716.57,1854.50 3663.97,1841.21 3568.36,1815.50" disallow="tram rail_urban rail rail_electric rail_fast ship">
        <param key="ref" value="D 619"/>
    </edge>
    <edge id="-1109772714" from="10152611762" to="10152611763" priority="1" type="highway.path" numLanes="1" speed="5.56" shape="3520.43,1609.45 3514.80,1614.10 3416.34,1614.83 3416.36,1609.16" width="2.00" allow="pedestrian bicycle"/>
    <edge id="-1119243207" from="cluster_423389695_423389699" to="441268024" priority="3" type="highway.residential" numLanes="1" speed="13.89" shape="1604.10,3401.49 1607.59,3405.74 1618.17,3417.31 1629.09,3427.21 1637.02,3431.58 1671.01,3434.95 1693.61,3435.21 1709.69,3435.35" disallow="tram rail_urban rail rail_electric rail_fast ship"/>
    <edge id="-1119245056" from="6333711041" to="430938925" priority="3" type="highway.residential" numLanes="1" speed="13.89" disallow="tram rail_urban rail rail_electric rail_fast ship"/>
    <edge id="-1119245057#0" from="423425137" to="cluster_423425148_8916107651" priority="3" type="highway.residential" numLanes="1" speed="13.89" shape="2890.05,3529.20 2891.12,3512.51 2899.70,3479.64 2912.15,3435.37 2905.75,3417.93" disallow="tram rail_urban rail rail_electric rail_fast ship"/>
    <edge id="-1119245057#1" from="423425135" to="423425137" priority="3" type="highway.residential" numLanes="1" speed="13.89" shape="2899.73,3593.66 2892.52,3559.21 2890.05,3529.20" disallow="tram rail_urban rail rail_electric rail_fast ship"/>
    <edge id="-1119245057#2" from="3340881679" to="423425135" priority="3" type="highway.residential" numLanes="1" speed="13.89" shape="2912.39,3734.01 2915.52,3689.09 2914.81,3655.19 2903.42,3603.96 2899.73,3593.66" disallow="tram rail_urban rail rail_electric rail_fast ship"/>
    <edge id="-1119245057#3" from="3340881694" to="3340881679" priority="3" type="highway.residential" numLanes="1" speed="13.89" shape="2922.04,3782.51 2914.82,3749.35 2912.39,3734.01" disallow="tram rail_urban rail rail_electric rail_fast ship"/>
    <edge id="-1119245058" from="2513116050" to="3340881694" priority="3" type="highway.residential" numLanes="1" speed="13.89" shape="2949.45,3849.82 2946.89,3842.24 2938.54,3823.65 2932.35,3809.85 2923.90,3791.04 2922.04,3782.51" disallow="tram rail_urban rail rail_electric rail_fast ship"/>
    <edge id="-1119245059#1" from="6333711042" to="cluster_6333711035_8766045899" priority="1" type="highway.track" numLanes="1" speed="5.56" shape="2791.91,3846.32 2796.19,3844.00" allow="pedestrian motorcycle moped bicycle"/>
    <edge id="-1119245060#0" from="3340881462" to="430894463" priority="11" type="highway.secondary" numLanes="1" speed="27.78" shape="2869.94,3435.71 2861.80,3439.07 2851.08,3443.40 2843.49,3445.68 2837.59,3447.45" disallow="tram rail_urban rail rail_electric rail_fast ship">
        <param key="ref" value="D 55"/>
    </edge>
    <edge id="-1119245060#1" from="cluster_423425148_8916107651" to="3340881462" priority="11" type="highway.secondary" numLanes="1" speed="27.78" shape="2905.75,3417.93 2869.94,3435.71" disallow="tram rail_urban rail rail_electric rail_fast ship">
        <param key="ref" value="D 55"/>
    </edge>
    <edge id="-1119245061" from="3340881416" to="cluster_423425148_8916107651" priority="11" type="highway.secondary" numLanes="1" speed="27.78" shape="2988.57,3375.39 2982.33,3378.47 2931.08,3404.82 2920.86,3410.32" disallow="tram rail_urban rail rail_electric rail_fast ship">
        <param key="ref" value="D 55"/>
    </edge>
    <edge id="-1119245071" from="cluster_429653579_430895473" to="430901229" priority="3" type="highway.residential" numLanes="1" speed="13.89" shape="2760.26,2897.75 2764.37,2929.80 2769.70,2969.01" disallow="tram rail_urban rail rail_electric rail_fast ship"/>
    <edge id="-1119245074" from="cluster_1687165259_1687165265" to="1687165275" priority="3" type="highway.residential" numLanes="1" speed="13.89" shape="1754.83,3248.98 1777.35,3221.55 1793.39,3198.74" disallow="tram rail_urban rail rail_electric rail_fast ship"/>
    <edge id="-1119245692" from="cluster_621155637_7257331823" to="423353694" priority="3" type="highway.residential" numLanes="1" speed="13.89" shape="2908.00,2785.61 2889.23,2794.64 2875.00,2768.04" disallow="tram rail_urban rail rail_electric rail_fast ship"/>
    <edge id="-1165362990#0" from="3204645334" to="cluster_10839457934_423366587_5779218170" priority="2" type="highway.living_street" numLanes="1" speed="2.78" shape="1394.98,2934.55 1393.30,2937.93 1386.79,2951.07" disallow="tram rail_urban rail rail_electric rail_fast ship"/>
    <edge id="-1165362990#1" from="cluster_10839457907_10839457927_3254769439" to="3204645334" priority="2" type="highway.living_street" numLanes="1" speed="2.78" shape="1400.41,2922.27 1394.98,2934.55" disallow="tram rail_urban rail rail_electric rail_fast ship"/>
    <edge id="-1165362991" from="10839457911" to="3339957033" priority="1" type="highway.track" numLanes="1" speed="5.56" allow="pedestrian motorcycle moped bicycle"/>