<edges xmlns:xsi="http://www.w3.org/2001/XMLSchema-instance" version="1.16" xsi:noNamespaceSchemaLocation="http://sumo.dlr.de/xsd/edges_file.xsd">
    <location netOffset="-505345.47,-5419462.57" convBoundary="0.00,0.00,7469.64,6489.20" origBoundary="3.006073,48.915627,3.223124,48.986425" projParameter="+proj=utm +zone=31 +ellps=WGS84 +datum=WGS84 +units=m +no_defs" />

    <edge id="-1020882132" from="1510697132" to="1510697135" priority="3" type="highway.residential" numLanes="1" speed="13.89" disallow="tram rail_urban rail rail_electric rail_fast ship" />
    <edge id="-1020882133" from="9415780730" to="1510697102" priority="3" type="highway.residential" numLanes="1" speed="13.89" disallow="tram rail_urban rail rail_electric rail_fast ship" />
    <edge id="-1020882134" from="1510696957" to="1510696930" priority="3" type="highway.residential" numLanes="1" speed="13.89" shape="4756.70,4164.50 4749.08,4149.06 4741.02,4133.77" disallow="tram rail_urban rail rail_electric rail_fast ship" />
    <edge id="-1021490570#0" from="12296588251" to="9421209241" priority="3" type="highway.residential" numLanes="1" speed="13.89" disallow="tram rail_urban rail rail_electric rail_fast ship" />
    <edge id="-1021490570#1" from="12296588216" to="12296588251" priority="3" type="highway.residential" numLanes="1" speed="13.89" shape="4905.75,1712.68 4907.26,1710.54 4921.25,1684.73 4936.81,1661.13 4939.74,1655.30 4941.79,1649.46 4943.14,1643.68" disallow="tram rail_urban rail rail_electric rail_fast ship" />
    <edge id="-1021490570#2" from="4741239092" to="12296588216" priority="3" type="highway.residential" numLanes="1" speed="13.89" disallow="tram rail_urban rail rail_electric rail_fast ship" />
    <edge id="-1039045484" from="1626255326" to="1626255350" priority="3" type="highway.residential" numLanes="1" speed="8.33" shape="5808.49,3533.92 5779.36,3544.45 5756.36,3548.76 5724.49,3550.00 5661.07,3540.59 5636.19,3536.33 5619.59,3539.93" disallow="tram rail_urban rail rail_electric rail_fast ship" />
    <edge id="-1039045485#0" from="1626255070" to="6959264693" priority="11" type="highway.secondary" numLanes="1" speed="13.89" disallow="tram rail_urban rail rail_electric rail_fast ship">
        <param key="ref" value="D 402" />
    </edge>
    <edge id="-1039045485#1" from="1626255111" to="1626255070" priority="11" type="highway.secondary" numLanes="1" speed="13.89" disallow="tram rail_urban rail rail_electric rail_fast ship">
        <param key="ref" value="D 402" />
    </edge>
    <edge id="-1039045485#2" from="1626255353" to="1626255111" priority="11" type="highway.secondary" numLanes="1" speed="13.89" shape="5232.29,3542.45 5228.66,3536.33 5193.97,3467.07" disallow="tram rail_urban rail rail_electric rail_fast ship">
        <param key="ref" value="D 402" />
    </edge>
    <edge id="-1039045485#3" from="1626255390" to="1626255353" priority="11" type="highway.secondary" numLanes="1" speed="13.89" shape="5248.05,3565.00 5241.63,3558.16 5232.29,3542.45" disallow="tram rail_urban rail rail_electric rail_fast ship">
        <param key="ref" value="D 402" />
    </edge>
    <edge id="-1039045485#4" from="1626255415" to="1626255390" priority="11" type="highway.secondary" numLanes="1" speed="13.89" disallow="tram rail_urban rail rail_electric rail_fast ship">
        <param key="ref" value="D 402" />
    </edge>
    <edge id="-1039045485#5" from="1626255417" to="1626255415" priority="11" type="highway.secondary" numLanes="1" speed="13.89" disallow="tram rail_urban rail rail_electric rail_fast ship">
        <param key="ref" value="D 402" />
    </edge>
    <edge id="-1039045485#6" from="1626255459" to="1626255417" priority="11" type="highway.secondary" numLanes="1" speed="13.89" disallow="tram rail_urban rail rail_electric rail_fast ship">
        <param key="ref" value="D 402" />
    </edge>
    <edge id="-1039045485#7" from="4278574244" to="1626255459" priority="11" type="highway.secondary" numLanes="1" speed="13.89" shape="5447.57,3737.19 5351.92,3666.97 5335.36,3650.17" disallow="tram rail_urban rail rail_electric rail_fast ship">
        <param key="ref" value="D 402" />
    </edge>
    <edge id="-1039045486" from="1626255745" to="4278574244" priority="11" type="highway.secondary" numLanes="1" speed="27.78" disallow="tram rail_urban rail rail_electric rail_fast ship">
        <param key="ref" value="D 402" />
    </edge>
    <edge id="-1058126264#0" from="12318776149" to="12318776146" priority="3" type="highway.residential" numLanes="1" speed="13.89" shape="3073.25,1943.01 3071.41,1951.05 3062.33,1955.74" disallow="tram rail_urban rail rail_electric rail_fast ship" />
    <edge id="-1058126264#1" from="9722720998" to="12318776149" priority="3" type="highway.residential" numLanes="1" speed="13.89" disallow="tram rail_urban rail rail_electric rail_fast ship" />
    <edge id="-1058126267#0" from="12323465551" to="1512039670" priority="3" type="highway.residential" numLanes="1" speed="13.89" disallow="tram rail_urban rail rail_electric rail_fast ship" />
    <edge id="-1058126267#1" from="9722721008" to="12323465551" priority="3" type="highway.residential" numLanes="1" speed="13.89" disallow="tram rail_urban rail rail_electric rail_fast ship" />
    <edge id="-1106599423" from="12318821926" to="2197833068" priority="11" type="highway.secondary" numLanes="1" speed="27.78" disallow="tram rail_urban rail rail_electric rail_fast ship">
        <param key="ref" value="D 204" />
    </edge>
    <edge id="-1192015959" from="3262830488" to="12304071445" priority="3" type="highway.residential" numLanes="1" speed="13.89" shape="5422.85,1294.17 5458.17,1300.29 5481.23,1304.44 5498.04,1305.94 5527.70,1304.89 5535.65,1303.13 5539.33,1302.32" disallow="tram rail_urban rail rail_electric rail_fast ship" />
    <edge id="-123923810#0" from="12336785771" to="1380517052" priority="10" type="highway.tertiary" numLanes="1" speed="22.22" disallow="tram rail_urban rail rail_electric rail_fast ship">
        <param key="ref" value="D 73" />
    </edge>
    <edge id="-123923810#1" from="1380517138" to="12336785771" priority="10" type="highway.tertiary" numLanes="1" speed="22.22" disallow="tram rail_urban rail rail_electric rail_fast ship">
        <param key="ref" value="D 73" />
    </edge>
    <edge id="-123923810#2" from="1380517134" to="1380517138" priority="10" type="highway.tertiary" numLanes="1" speed="22.22" shape="4305.98,3699.27 4299.69,3698.17 4292.77,3697.60 4286.79,3698.18 4280.80,3699.30 4221.30,3723.83 4206.75,3730.83 4194.85,3738.42 4188.33,3742.85" disallow="tram rail_urban rail rail_electric rail_fast ship">
        <param key="ref" value="D 73" />
    </edge>
    <edge id="-123923810#3" from="12336796813" to="1380517134" priority="10" type="highway.tertiary" numLanes="1" speed="22.22" shape="4338.34,3713.12 4319.66,3704.40 4305.98,3699.27" disallow="tram rail_urban rail rail_electric rail_fast ship">
        <param key="ref" value="D 73" />
    </edge>
    <edge id="-123923810#4" from="1510696559" to="12336796813" priority="10" type="highway.tertiary" numLanes="1" speed="22.22" disallow="tram rail_urban rail rail_electric rail_fast ship">
        <param key="ref" value="D 73" />
    </edge>
    <edge id="-123923810#5" from="12336728374" to="1510696559" priority="10" type="highway.tertiary" numLanes="1" speed="22.22" shape="4368.25,3723.62 4366.59,3724.24 4363.12,3724.55 4359.39,3723.50 4350.20,3719.11" disallow="tram rail_urban rail rail_electric rail_fast ship">
        <param key="ref" value="D 73" />
    </edge>
    <edge id="-123923815#0" from="1380517048" to="1380517085" priority="10" type="highway.tertiary" numLanes="1" speed="22.22" shape="4473.56,2909.51 4475.03,2851.98 4476.35,2813.76 4476.26,2774.72 4475.54,2754.66 4473.58,2736.97 4470.30,2723.31 4466.06,2710.64 4455.85,2685.49" disallow="tram rail_urban rail rail_electric rail_fast ship">
        <param key="ref" value="D 80" />
    </edge>
    <edge id="-123923823#0" from="8062659927" to="254625748" priority="3" type="highway.residential" numLanes="1" speed="13.89" shape="4070.96,2877.51 4069.06,2879.77 4067.86,2881.19" disallow="tram rail_urban rail rail_electric rail_fast ship" />
    <edge id="-123923823#1" from="8062653176" to="8062659927" priority="3" type="highway.residential" numLanes="1" speed="13.89" disallow="tram rail_urban rail rail_electric rail_fast ship" />
    <edge id="-123923823#2" from="1380517082" to="8062653176" priority="3" type="highway.residential" numLanes="1" speed="13.89" disallow="tram rail_urban rail rail_electric rail_fast ship" />
    <edge id="-123923823#3" from="11768740356" to="1380517082" priority="3" type="highway.residential" numLanes="1" speed="13.89" shape="4144.41,2780.56 4137.00,2799.64 4132.94,2809.47 4129.23,2815.38" disallow="tram rail_urban rail rail_electric rail_fast ship" />
    <edge id="-123923823#4" from="11768740347" to="11768740356" priority="3" type="highway.residential" numLanes="1" speed="13.89" shape="4175.06,2743.07 4146.97,2776.37 4144.41,2780.56" disallow="tram rail_urban rail rail_electric rail_fast ship" />
    <edge id="-123923823#5" from="8062625517" to="11768740347" priority="3" type="highway.residential" numLanes="1" speed="13.89" disallow="tram rail_urban rail rail_electric rail_fast ship" />
    <edge id="-123923823#6" from="1380517144" to="8062625517" priority="3" type="highway.residential" numLanes="1" speed="13.89" disallow="tram rail_urban rail rail_electric rail_fast ship" />
    <edge id="-123923824#0" from="1380517092" to="1380517116" priority="3" type="highway.residential" numLanes="1" speed="13.89" disallow="tram rail_urban rail rail_electric rail_fast ship" />
    <edge id="-123923824#1" from="1380517065" to="1380517092" priority="3" type="highway.residential" numLanes="1" speed="13.89" shape="3869.85,2740.15 3809.68,2811.54 3777.00,2851.15 3751.57,2871.64" disallow="tram rail_urban rail rail_electric rail_fast ship" />
    <edge id="-123923824#2" from="1380517080" to="1380517065" priority="3" type="highway.residential" numLanes="1" speed="13.89" shape="3956.79,2611.13 3909.13,2635.67 3902.46,2641.48 3898.78,2646.96 3887.68,2682.17 3882.76,2716.30 3881.03,2723.16 3876.09,2732.47 3869.85,2740.15" disallow="tram rail_urban rail rail_electric rail_fast ship" />
    <edge id="-123923824#3" from="254625749" to="1380517080" priority="3" type="highway.residential" numLanes="1" speed="13.89" shape="3967.53,2606.56 3963.69,2607.55 3956.79,2611.13" disallow="tram rail_urban rail rail_electric rail_fast ship" />
    <edge id="-123923831#0" from="8062654205" to="1380517099" priority="3" type="highway.residential" numLanes="1" speed="13.89" shape="4264.23,2633.69 4266.66,2630.77 4269.10,2627.85" disallow="tram rail_urban rail rail_electric rail_fast ship" />
    <edge id="-123923831#1" from="12323874561" to="8062654205" priority="3" type="highway.residential" numLanes="1" speed="13.89" disallow="tram rail_urban rail rail_electric rail_fast ship" />
    <edge id="-123923831#2" from="8062608070" to="12323874561" priority="3" type="highway.residential" numLanes="1" speed="13.89" disallow="tram rail_urban rail rail_electric rail_fast ship" />
    <edge id="-123923831#3" from="1510695909" to="8062608070" priority="3" type="highway.residential" numLanes="1" speed="13.89" disallow="tram rail_urban rail rail_electric rail_fast ship" />
    <edge id="-1248139738" from="2777571461" to="11768709179" priority="11" type="highway.secondary" numLanes="1" speed="27.78" shape="5690.10,378.14 5700.28,462.40 5711.52,530.19 5714.60,552.60 5715.06,577.74 5710.54,649.90 5706.11,715.91 5702.84,737.67 5697.94,758.86 5665.29,861.21 5658.55,881.55 5650.86,897.73 5641.35,911.69 5630.38,922.86 5619.37,931.59 5597.48,946.03 5564.89,967.36" disallow="tram rail_urban rail rail_electric rail_fast ship">
        <param key="ref" value="D 204" />
    </edge>
    <edge id="-1267085774" from="11768740372" to="1510696134" priority="3" type="highway.residential" numLanes="1" speed="13.89" shape="4198.19,3042.81 4188.68,3033.78 4187.12,3030.45 4185.04,3020.23" disallow="tram rail_urban rail rail_electric rail_fast ship" />
    <edge id="-1311358420#0" from="12296055921" to="12138609811" priority="3" type="highway.residential" numLanes="1" speed="13.89" disallow="tram rail_urban rail rail_electric rail_fast ship" />
    <edge id="-1311358420#1" from="12138609812" to="12296055921" priority="3" type="highway.residential" numLanes="1" speed="13.89" disallow="tram rail_urban rail rail_electric rail_fast ship" />
    <edge id="-1311608945" from="1512039390" to="12314251327" priority="3" type="highway.residential" numLanes="1" speed="13.89" disallow="tram rail_urban rail rail_electric rail_fast ship" />
    <edge id="-1311608946" from="12140769172" to="12140769173" priority="3" type="highway.residential" numLanes="1" speed="13.89" shape="4580.66,2419.22 4577.25,2421.91 4559.32,2435.13" disallow="tram rail_urban rail rail_electric rail_fast ship" />
    <edge id="-1311608951" from="1510713356" to="1510713374" priority="3" type="highway.residential" numLanes="1" speed="13.89" disallow="tram rail_urban rail rail_electric rail_fast ship" />
    <edge id="-1311608952#0" from="3175140499" to="1487549189" priority="10" type="highway.tertiary" numLanes="1" speed="22.22" disallow="tram rail_urban rail rail_electric rail_fast ship" />
    <edge id="-1311608952#1" from="292394269" to="3175140499" priority="10" type="highway.tertiary" numLanes="1" speed="22.22" shape="4148.73,2229.71 4146.01,2232.63 4143.81,2234.78" disallow="tram rail_urban rail rail_electric rail_fast ship" />
    <edge id="-1311610295" from="1763502581" to="1510697200" priority="3" type="highway.residential" numLanes="1" speed="13.89" shape="5729.36,4699.63 5721.50,4703.14 5702.24,4714.06 5554.04,4808.08" disallow="tram rail_urban rail rail_electric rail_fast ship" />
    <edge id="-1328834775" from="1510767811" to="12318776123" priority="3" type="highway.residential" numLanes="1" speed="13.89" shape="3675.91,1294.22 3693.85,1298.67 3712.99,1301.70 3731.91,1301.22 3747.99,1299.05 3763.03,1299.04" disallow="tram rail_urban rail rail_electric rail_fast ship" />
    <edge id="-1329006816#0" from="3175140503" to="461546003" priority="3" type="highway.residential" numLanes="1" speed="13.89" disallow="tram rail_urban rail rail_electric rail_fast ship" />
    <edge id="-1329006816#1" from="1510768492" to="3175140503" priority="3" type="highway.residential" numLanes="1" speed="13.89" disallow="tram rail_urban rail rail_electric rail_fast ship" />
    <edge id="-1329006816#2" from="1510768484" to="1510768492" priority="3" type="highway.residential" numLanes="1" speed="13.89" disallow="tram rail_urban rail rail_electric rail_fast ship" />
    <edge id="-1329006816#3" from="1510768463" to="1510768484" priority="3" type="highway.residential" numLanes="1" speed="13.89" disallow="tram rail_urban rail rail_electric rail_fast ship" />
    <edge id="-1329006816#4" from="1510768454" to="1510768463" priority="3" type="highway.residential" numLanes="1" speed="13.89" disallow="tram rail_urban rail rail_electric rail_fast ship" />
    <edge id="-1329006817" from="1511608742" to="1511608726" priority="3" type="highway.residential" numLanes="1" speed="13.89" shape="4691.99,1744.60 4648.56,1732.12 4556.90,1701.82 4550.87,1699.82 4546.96,1698.52" disallow="tram rail_urban rail rail_electric rail_fast ship" />
    <edge id="-1329098722" from="292394273" to="8062648617" priority="10" type="highway.tertiary" numLanes="1" speed="22.22" shape="4329.84,2281.88 4326.17,2285.62 4272.87,2329.53 4256.58,2341.42" disallow="tram rail_urban rail rail_electric rail_fast ship" />
    <edge id="-1329108377" from="1510713386" to="526283787" priority="3" type="highway.residential" numLanes="1" speed="13.89" disallow="tram rail_urban rail rail_electric rail_fast ship" />
    <edge id="-1329120275" from="12297066143" to="254642794" priority="4" type="highway.unclassified" numLanes="1" speed="13.89" disallow="tram rail_urban rail rail_electric rail_fast ship" />
    <edge id="-1329188154" from="1512039321" to="1511608748" priority="10" type="highway.tertiary" numLanes="1" speed="22.22" shape="5541.39,2015.01 5516.71,1999.30 5402.76,1913.96 5339.58,1870.45 5242.08,1831.79 5224.45,1822.91 5208.73,1812.64 5201.50,1805.22 5196.41,1797.94 5192.57,1790.62" disallow="tram rail_urban rail rail_electric rail_fast ship">
        <param key="ref" value="D 70" />
    </edge>
    <edge id="-1329188155" from="1511608748" to="12296588302" priority="10" type="highway.tertiary" numLanes="1" speed="22.22" disallow="tram rail_urban rail rail_electric rail_fast ship">
        <param key="ref" value="D 70" />
    </edge>
    <edge id="-1329405755#0" from="12318742265" to="11768709202" priority="12" type="highway.primary" numLanes="2" speed="27.78" disallow="tram rail_urban rail rail_electric rail_fast ship">
        <param key="ref" value="D 603" />
    </edge>
    <edge id="-1329405761#1" from="1510768208" to="1487549169" priority="3" type="highway.residential" numLanes="1" speed="13.89" shape="4205.84,1527.67 4205.74,1523.37 4205.05,1517.55 4202.90,1512.60 4200.60,1508.58" disallow="tram rail_urban rail rail_electric rail_fast ship" />
    <edge id="-1329405761#2" from="1510768210" to="1510768208" priority="3" type="highway.residential" numLanes="1" speed="13.89" disallow="tram rail_urban rail rail_electric rail_fast ship" />
    <edge id="-1329605153#0" from="12317906483" to="1511608209" priority="3" type="highway.residential" numLanes="1" speed="13.89" disallow="tram rail_urban rail rail_electric rail_fast ship" />
    <edge id="-1329605153#1" from="12301489503" to="12317906483" priority="3" type="highway.residential" numLanes="1" speed="13.89" disallow="tram rail_urban rail rail_electric rail_fast ship" />
    <edge id="-1329619838" from="12301591652" to="1510713405" priority="3" type="highway.residential" numLanes="1" speed="8.33" shape="3941.71,2587.11 3960.18,2594.30 3962.05,2595.04 3964.98,2594.66" disallow="tram rail_urban rail rail_electric rail_fast ship" />
    <edge id="-1329619844" from="12301591683" to="12301591652" priority="3" type="highway.residential" numLanes="1" speed="8.33" shape="3921.13,2579.22 3923.32,2579.41 3933.73,2583.24 3935.49,2584.65 3941.71,2587.11" disallow="tram rail_urban rail rail_electric rail_fast ship" />
    <edge id="-1329619845" from="3262830501" to="12301591669" priority="3" type="highway.residential" numLanes="1" speed="13.89" disallow="tram rail_urban rail rail_electric rail_fast ship" />
    <edge id="-1329631990#0" from="2848074522" to="2848074521" priority="4" type="highway.unclassified" numLanes="1" speed="13.89" disallow="tram rail_urban rail rail_electric rail_fast ship" />
    <edge id="-1329631990#1" from="12301695956" to="2848074522" priority="4" type="highway.unclassified" numLanes="1" speed="13.89" shape="4131.93,1981.57 4133.34,1984.26 4136.62,1985.38" disallow="tram rail_urban rail rail_electric rail_fast ship" />
    <edge id="-1329632005" from="1510695906" to="1380517085" priority="3" type="highway.residential" numLanes="1" speed="13.89" shape="4465.40,2685.85 4460.03,2683.63 4455.85,2685.49" disallow="tram rail_urban rail rail_electric rail_fast ship" />
    <edge id="-1329849036#0" from="1511608375" to="1511608344" priority="10" type="highway.tertiary" numLanes="1" speed="22.22" shape="4466.60,1412.69 4432.11,1387.65 4405.24,1378.82 4400.21,1376.23" disallow="tram rail_urban rail rail_electric rail_fast ship">
        <param key="ref" value="D 70" />
    </edge>
    <edge id="-1329849036#1" from="1511608380" to="1511608375" priority="10" type="highway.tertiary" numLanes="1" speed="22.22" disallow="tram rail_urban rail rail_electric rail_fast ship">
        <param key="ref" value="D 70" />
    </edge>
    <edge id="-1329849036#2" from="1511608445" to="1511608380" priority="10" type="highway.tertiary" numLanes="1" speed="22.22" shape="4594.22,1477.31 4585.20,1474.29 4573.48,1470.37 4548.42,1459.19 4518.35,1442.78 4487.97,1425.13" disallow="tram rail_urban rail rail_electric rail_fast ship">
        <param key="ref" value="D 70" />
    </edge>
    <edge id="-1329849037" from="1511608733" to="1511608726" priority="3" type="highway.residential" numLanes="1" speed="13.89" disallow="tram rail_urban rail rail_electric rail_fast ship" />
    <edge id="-1329849039#0" from="1510713405" to="254644190" priority="12" type="highway.primary" numLanes="1" speed="27.78" shape="3964.98,2594.66 3964.54,2592.53 3961.15,2576.91 3960.39,2572.91" disallow="tram rail_urban rail rail_electric rail_fast ship">
        <param key="ref" value="D 603" />
    </edge>
    <edge id="-1329849039#1" from="254625749" to="1510713405" priority="12" type="highway.primary" numLanes="1" speed="27.78" disallow="tram rail_urban rail rail_electric rail_fast ship">
        <param key="ref" value="D 603" />
    </edge>
    <edge id="-1329879927#0" from="12334805396" to="1510696395" priority="3" type="highway.residential" numLanes="1" speed="13.89" shape="3509.55,3488.08 3552.38,3431.96 3573.78,3403.78 3577.52,3396.38 3580.56,3393.60 3583.43,3388.16 3587.09,3380.58 3587.56,3377.51 3591.23,3370.47 3593.13,3365.98" disallow="tram rail_urban rail rail_electric rail_fast ship" />
    <edge id="-1329879927#1" from="1510696467" to="12334805396" priority="3" type="highway.residential" numLanes="1" speed="13.89" disallow="tram rail_urban rail rail_electric rail_fast ship" />
    <edge id="-1331292829#0" from="1512039589" to="12140769173" priority="3" type="highway.residential" numLanes="1" speed="13.89" shape="4551.87,2425.83 4555.26,2430.06 4559.32,2435.13" disallow="tram rail_urban rail rail_electric rail_fast ship" />
    <edge id="-1331292829#1" from="12317872097" to="1512039589" priority="3" type="highway.residential" numLanes="1" speed="13.89" disallow="tram rail_urban rail rail_electric rail_fast ship" />
    <edge id="-1331310640" from="12296588302" to="12317930654" priority="3" type="highway.residential" numLanes="1" speed="13.89" shape="5190.66,1785.21 5194.21,1783.84 5198.99,1780.47 5200.61,1778.36" disallow="tram rail_urban rail rail_electric rail_fast ship" />
    <edge id="-1331389460#1" from="3175140472" to="12318702078" priority="12" type="highway.primary" numLanes="1" speed="27.78" shape="3490.14,1700.92 3489.99,1695.67 3489.67,1684.25" disallow="tram rail_urban rail rail_electric rail_fast ship">
        <param key="ref" value="D 402" />
    </edge>
    <edge id="-1331389460#2" from="12318702067" to="3175140472" priority="12" type="highway.primary" numLanes="1" speed="27.78" disallow="tram rail_urban rail rail_electric rail_fast ship">
        <param key="ref" value="D 402" />
    </edge>
    <edge id="-1331402696#0" from="12318853014" to="1511608445" priority="3" type="highway.residential" numLanes="1" speed="13.89" shape="4595.16,1473.26 4594.82,1474.42 4594.22,1477.31" disallow="tram rail_urban rail rail_electric rail_fast ship" />
    <edge id="-1331402696#1" from="1511608422" to="12318853014" priority="3" type="highway.residential" numLanes="1" speed="13.89" disallow="tram rail_urban rail rail_electric rail_fast ship" />
    <edge id="-1331892705#0" from="12323174973" to="2305359788" priority="3" type="highway.residential" numLanes="1" speed="13.89" shape="4650.12,2302.30 4664.70,2302.52 4680.27,2301.82" disallow="tram rail_urban rail rail_electric rail_fast ship" />
    <edge id="-1331892705#1" from="12323174971" to="12323174973" priority="3" type="highway.residential" numLanes="1" speed="13.89" disallow="tram rail_urban rail rail_electric rail_fast ship" />
    <edge id="-1331892717" from="12323184454" to="1512039645" priority="3" type="highway.residential" numLanes="1" speed="13.89" disallow="tram rail_urban rail rail_electric rail_fast ship" />
    <edge id="-1331914468#0" from="292394290" to="4355640810" priority="11" type="highway.secondary" numLanes="1" speed="27.78" shape="5135.42,3379.80 5130.42,3372.05 5121.23,3355.34 5110.25,3334.33" disallow="tram rail_urban rail rail_electric rail_fast ship">
        <param key="ref" value="D 402" />
    </edge>
    <edge id="-1331914468#1" from="6959264692" to="292394290" priority="11" type="highway.secondary" numLanes="1" speed="27.78" disallow="tram rail_urban rail rail_electric rail_fast ship">
        <param key="ref" value="D 402" />
    </edge>
    <edge id="-1331914470" from="12323365058" to="12317797287" priority="11" type="highway.secondary" numLanes="1" speed="27.78" disallow="tram rail_urban rail rail_electric rail_fast ship">
        <param key="ref" value="D 402" />
    </edge>
    <edge id="-1331931280#0" from="12323465576" to="12323465573" priority="3" type="highway.residential" numLanes="1" speed="13.89" shape="5060.73,2124.10 5061.59,2125.32 5060.19,2138.20" disallow="tram rail_urban rail rail_electric rail_fast ship" />
    <edge id="-1331931280#1" from="12323523512" to="12323465576" priority="3" type="highway.residential" numLanes="1" speed="13.89" disallow="tram rail_urban rail rail_electric rail_fast ship" />
    <edge id="-1331931280#2" from="12323465575" to="12323523512" priority="3" type="highway.residential" numLanes="1" speed="13.89" disallow="tram rail_urban rail rail_electric rail_fast ship" />
    <edge id="-1331931284#0" from="12323465597" to="12323465594" priority="3" type="highway.residential" numLanes="1" speed="13.89" shape="5064.49,2068.78 5064.14,2071.06 5060.97,2073.31" disallow="tram rail_urban rail rail_electric rail_fast ship" />
    <edge id="-1331931284#1" from="12323465596" to="12323465597" priority="3" type="highway.residential" numLanes="1" speed="13.89" disallow="tram rail_urban rail rail_electric rail_fast ship" />
    <edge id="-1331931287#0" from="12323523503" to="12323465599" priority="3" type="highway.residential" numLanes="1" speed="13.89" shape="5022.35,2063.39 5022.09,2065.72 5023.85,2067.98" disallow="tram rail_urban rail rail_electric rail_fast ship" />
    <edge id="-1331931287#1" from="12323523501" to="12323523503" priority="3" type="highway.residential" numLanes="1" speed="13.89" disallow="tram rail_urban rail rail_electric rail_fast ship" />
    <edge id="-1331971833" from="526283784" to="12323874587" priority="3" type="highway.residential" numLanes="1" speed="13.89" shape="4185.76,2562.31 4183.36,2565.37 4182.67,2566.23" disallow="tram rail_urban rail rail_electric rail_fast ship" />
    <edge id="-1333208704" from="1510713198" to="1510713208" priority="3" type="highway.residential" numLanes="1" speed="13.89" shape="4071.13,2150.66 4074.50,2161.81 4078.35,2171.04" disallow="tram rail_urban rail rail_electric rail_fast ship" />
    <edge id="-1333238768" from="12334805282" to="1510695984" priority="3" type="highway.residential" numLanes="1" speed="13.89" disallow="tram rail_urban rail rail_electric rail_fast ship" />
    <edge id="-1333441453" from="1510697056" to="12336769585" priority="4" type="highway.unclassified" numLanes="1" speed="13.89" disallow="tram rail_urban rail rail_electric rail_fast ship" />
    <edge id="-1333455653#0" from="1510696388" to="1510696253" priority="3" type="highway.residential" numLanes="1" speed="13.89" shape="3602.94,3331.48 3614.90,3285.01 3614.61,3279.54 3616.92,3270.44 3619.44,3266.51 3620.73,3261.73 3623.51,3256.46 3627.40,3241.72 3627.75,3236.03 3630.18,3221.20 3631.95,3202.84 3633.53,3198.63 3634.97,3183.15 3634.11,3178.34 3635.71,3159.93 3635.16,3155.70 3636.07,3145.25 3637.34,3141.20 3638.42,3128.78 3639.66,3119.15 3641.42,3112.83" disallow="tram rail_urban rail rail_electric rail_fast ship" />
    <edge id="-1333455653#1" from="11768521885" to="1510696388" priority="3" type="highway.residential" numLanes="1" speed="13.89" shape="3594.77,3361.78 3599.03,3346.60 3602.94,3331.48" disallow="tram rail_urban rail rail_electric rail_fast ship" />
    <edge id="-1333455653#2" from="1510696395" to="11768521885" priority="3" type="highway.residential" numLanes="1" speed="13.89" disallow="tram rail_urban rail rail_electric rail_fast ship" />
    <edge id="-1333457114" from="12336914547" to="1626254712" priority="3" type="highway.residential" numLanes="1" speed="13.89" shape="5155.24,3102.27 5156.14,3092.67 5155.62,3082.88 5152.03,3068.27 5142.66,3041.09 5139.07,3028.40 5138.75,3018.90 5139.95,3009.90 5142.71,3003.19 5146.99,2996.80 5153.13,2990.78 5160.54,2986.18 5167.88,2983.25 5175.57,2981.98 5183.99,2982.03 5191.73,2983.92 5200.20,2988.29 5206.82,2995.00 5212.51,3002.73 5216.56,3012.23 5220.07,3083.48 5221.01,3095.12 5223.16,3099.76 5225.15,3104.09 5244.49,3124.47 5248.75,3132.05 5250.08,3140.14 5248.79,3150.14 5245.01,3168.27 5242.09,3177.95 5238.50,3184.83 5235.62,3188.31 5231.96,3191.50 5227.30,3193.96 5222.04,3195.65 5216.48,3196.67 5210.81,3196.54 5171.45,3191.21 5162.81,3190.34" disallow="tram rail_urban rail rail_electric rail_fast ship" />
    <edge id="-1333458136#0" from="11066446026" to="1511667312" priority="3" type="highway.residential" numLanes="1" speed="13.89" disallow="tram rail_urban rail rail_electric rail_fast ship" />
    <edge id="-1333458136#1" from="12336935144" to="11066446026" priority="3" type="highway.residential" numLanes="1" speed="13.89" disallow="tram rail_urban rail rail_electric rail_fast ship" />
    <edge id="-1333458138#0" from="12296277047" to="12296277033" priority="12" type="highway.primary" numLanes="1" speed="27.78" shape="5550.18,1415.99 5551.90,1416.39 5591.69,1425.41 5610.36,1429.65" disallow="tram rail_urban rail rail_electric rail_fast ship">
        <param key="ref" value="D 407" />
    </edge>
    <edge id="-1333470863#0" from="12296277038" to="1511667346" priority="12" type="highway.primary" numLanes="1" speed="27.78" shape="5403.97,1382.06 5406.37,1382.61 5423.48,1386.52" disallow="tram rail_urban rail rail_electric rail_fast ship">
        <param key="ref" value="D 407" />
    </edge>