<?xml version="1.0" encoding="UTF-8"?>

<!-- generated on 2025-04-09 03:28:26 by Eclipse SUMO netconvert Version 1.19.0
<configuration xmlns:xsi="http://www.w3.org/2001/XMLSchema-instance" xsi:noNamespaceSchemaLocation="http://sumo.dlr.de/xsd/netconvertConfiguration.xsd">

    <input>
        <sumo-net-file value="la_ferte/la_ferte.net.xml"/>
    </input>

    <output>
        <plain-output-prefix value="la_ferte/la_ferte"/>
    </output>

    <processing>
        <geometry.min-radius.fix.railways value="false"/>
        <geometry.max-grade.fix value="false"/>
        <offset.disable-normalization value="true"/>
        <lefthand value="0"/>
    </processing>

    <tls_building>
        <tls.ignore-internal-junction-jam value="1"/>
    </tls_building>

    <junctions>
        <no-turnarounds value="true"/>
        <junctions.corner-detail value="5"/>
        <junctions.limit-turn-speed value="5.50"/>
        <rectangular-lane-cut value="0"/>
    </junctions>

    <pedestrian>
        <walkingareas value="0"/>
    </pedestrian>

</configuration>
-->

<nodes version="1.16" xmlns:xsi="http://www.w3.org/2001/XMLSchema-instance" xsi:noNamespaceSchemaLocation="http://sumo.dlr.de/xsd/nodes_file.xsd">
    <location netOffset="-505345.47,-5419462.57" convBoundary="0.00,0.00,7469.64,6489.20" origBoundary="3.006073,48.915627,3.223124,48.986425" projParameter="+proj=utm +zone=31 +ellps=WGS84 +datum=WGS84 +units=m +no_defs"/>

    <node id="10060997336" x="4087.90" y="1104.83" type="priority"/>
    <node id="10120302865" x="4943.05" y="3010.41" type="priority"/>
    <node id="10120302868" x="5010.40" y="3022.64" type="dead_end"/>
    <node id="10120302869" x="5086.86" y="3005.05" type="right_before_left"/>
    <node id="10120302870" x="5026.56" y="3042.74" type="right_before_left"/>
    <node id="10120302871" x="5035.05" y="3056.13" type="right_before_left"/>
    <node id="10120302873" x="5077.88" y="2990.16" type="right_before_left"/>
    <node id="10120302874" x="5062.99" y="2965.92" type="priority"/>
    <node id="10126188946" x="5122.10" y="3387.97" type="right_before_left"/>
    <node id="10126188951" x="5125.35" y="3422.57" type="priority"/>
    <node id="10126188952" x="5107.64" y="3395.81" type="right_before_left"/>
    <node id="10126197704" x="5174.03" y="3435.55" type="priority"/>
    <node id="10126197712" x="5156.86" y="3411.73" type="priority"/>
    <node id="10126197714" x="4297.72" y="2024.91" type="priority"/>
    <node id="10126197716" x="4129.42" y="1760.75" type="priority"/>
    <node id="10291108149" x="5985.11" y="4826.23" type="dead_end"/>
    <node id="10291108150" x="5982.38" y="4828.47" type="dead_end"/>
    <node id="10292946619" x="4950.60" y="3020.84" type="priority"/>
    <node id="10292946633" x="4790.40" y="2710.55" type="priority"/>
    <node id="10292946634" x="5069.70" y="3245.61" type="priority"/>
    <node id="10292946635" x="5001.69" y="3076.99" type="priority"/>
    <node id="10292946636" x="5018.58" y="3030.20" type="priority"/>
    <node id="10292958090" x="5250.04" y="3434.04" type="priority"/>
    <node id="10293557193" x="2782.99" y="1870.73" type="traffic_light" tl="10293557193"/>
    <node id="10293557194" x="3027.21" y="1804.04" type="priority"/>
    <node id="10293588740" x="4022.83" y="1622.68" type="priority"/>
    <node id="10293588741" x="4025.65" y="1629.07" type="priority"/>
    <node id="10293588742" x="4017.68" y="1653.26" type="priority"/>
    <node id="10293596148" x="3489.41" y="1599.04" type="priority"/>
    <node id="10343143787" x="4313.04" y="2496.51" type="priority"/>
    <node id="10769703141" x="2459.01" y="656.81" type="right_before_left"/>
    <node id="10769703143" x="2902.68" y="813.62" type="priority"/>
    <node id="10769703144" x="2466.54" y="473.51" type="priority"/>
    <node id="10769703145" x="2598.10" y="695.94" type="right_before_left"/>
    <node id="10985246310" x="4548.93" y="2566.18" type="priority"/>
    <node id="11066446026" x="5574.67" y="1292.00" type="priority"/>
    <node id="11289260133" x="4379.40" y="2958.89" type="right_before_left"/>
    <node id="11289260134" x="4360.83" y="2935.46" type="right_before_left"/>
    <node id="11289260135" x="4299.76" y="2942.09" type="right_before_left"/>
    <node id="11289260136" x="4285.12" y="2925.87" type="right_before_left"/>
    <node id="11289260137" x="4314.13" y="2958.02" type="right_before_left"/>
    <node id="11289260138" x="4338.36" y="2908.32" type="right_before_left"/>
    <node id="11289260139" x="4287.16" y="2953.12" type="right_before_left"/>
    <node id="11289260140" x="4353.20" y="2926.23" type="right_before_left"/>
    <node id="11289260143" x="4367.25" y="2850.58" type="priority" fringe="inner">
        <param key="buffer_stop" value="true"/>
    </node>
    <node id="11289260144" x="4359.84" y="2857.37" type="right_before_left"/>
    <node id="11289260145" x="4323.98" y="2890.94" type="right_before_left"/>
    <node id="11289260146" x="4341.54" y="2970.03" type="right_before_left"/>
    <node id="11289260147" x="4423.57" y="3015.85" type="right_before_left"/>
    <node id="11289260148" x="4465.39" y="2983.90" type="right_before_left"/>
    <node id="11289260149" x="4394.62" y="3037.98" type="right_before_left"/>
    <node id="11289260150" x="4410.89" y="2999.50" type="right_before_left"/>
    <node id="11289260151" x="4452.42" y="2967.24" type="right_before_left"/>
    <node id="11289260152" x="4382.01" y="3021.91" type="right_before_left"/>
    <node id="11289260153" x="4398.08" y="2982.98" type="right_before_left"/>
    <node id="11289260154" x="4369.00" y="3005.33" type="right_before_left"/>
    <node id="11289260155" x="4385.60" y="2966.89" type="right_before_left"/>
    <node id="11289260156" x="4426.91" y="2934.95" type="right_before_left"/>
    <node id="11289260157" x="4356.57" y="2989.34" type="right_before_left"/>
    <node id="11289260158" x="4350.25" y="2981.22" type="right_before_left"/>
    <node id="11289260160" x="4400.15" y="2903.61" type="right_before_left"/>
    <node id="11289260161" x="4410.56" y="2915.57" type="right_before_left"/>
    <node id="11289260162" x="4365.70" y="2950.24" type="right_before_left"/>
    <node id="11289260163" x="4366.11" y="2941.82" type="right_before_left"/>
    <node id="11289260164" x="4374.84" y="2943.51" type="right_before_left"/>
    <node id="11289260165" x="4373.98" y="2951.67" type="right_before_left"/>
    <node id="11289260166" x="4436.57" y="3032.61" type="right_before_left"/>
    <node id="11289260167" x="4343.90" y="2986.09" type="right_before_left"/>
    <node id="11289260168" x="4313.15" y="3011.02" type="right_before_left"/>
    <node id="11289280569" x="4365.61" y="3013.21" type="right_before_left"/>
    <node id="11289280575" x="4356.22" y="3066.05" type="right_before_left"/>
    <node id="11289280576" x="4363.52" y="3060.59" type="priority" fringe="inner">
        <param key="buffer_stop" value="true"/>
    </node>
    <node id="11289280577" x="4359.50" y="3070.35" type="priority" fringe="inner">
        <param key="buffer_stop" value="true"/>
    </node>
    <node id="11289280578" x="4335.21" y="3038.50" type="right_before_left"/>
    <node id="11289280579" x="4371.39" y="3008.40" type="right_before_left"/>
    <node id="11289280584" x="4376.24" y="2875.18" type="right_before_left"/>
    <node id="11289280585" x="4392.21" y="2894.48" type="right_before_left"/>
    <node id="11289280586" x="4420.72" y="2927.24" type="right_before_left"/>
    <node id="11289280587" x="4439.73" y="2950.96" type="right_before_left"/>
    <node id="11768521881" x="4468.29" y="3985.91" type="priority"/>
    <node id="11768521882" x="4381.82" y="3742.63" type="priority"/>
    <node id="11768521883" x="4362.87" y="3690.06" type="priority"/>
    <node id="11768521884" x="3790.78" y="3679.28" type="priority"/>
    <node id="11768521885" x="3594.77" y="3361.78" type="priority"/>
    <node id="11768541005" x="4999.64" y="2521.09" type="priority"/>
    <node id="11768541006" x="4985.51" y="2529.60" type="priority"/>
    <node id="11768541007" x="4485.61" y="1430.30" type="priority"/>
    <node id="11768693035" x="4275.13" y="1467.66" type="priority"/>
    <node id="11768693037" x="4656.34" y="1304.60" type="priority"/>
    <node id="11768693038" x="4703.18" y="1305.15" type="priority"/>
    <node id="11768693039" x="4642.51" y="1309.96" type="priority"/>
    <node id="11768693040" x="4459.77" y="1329.09" type="priority"/>
    <node id="11768693041" x="4290.97" y="2148.13" type="priority"/>
    <node id="11768693042" x="4242.78" y="2092.78" type="priority"/>
    <node id="11768693043" x="4261.90" y="2121.38" type="priority"/>
    <node id="11768693044" x="4319.05" y="2084.00" type="priority"/>
    <node id="11768693045" x="4087.36" y="1788.13" type="priority"/>
    <node id="11768693047" x="4161.00" y="1881.19" type="priority"/>
    <node id="11768693048" x="4119.42" y="1908.25" type="priority"/>
    <node id="11768693049" x="4645.48" y="1635.34" type="right_before_left"/>
    <node id="11768693050" x="4590.70" y="1612.04" type="right_before_left"/>
    <node id="11768693051" x="4279.58" y="2220.62" type="priority"/>
    <node id="11768693052" x="4381.27" y="2353.26" type="priority"/>
    <node id="11768693057" x="4345.24" y="945.65" type="priority"/>
    <node id="11768693058" x="4244.34" y="1968.78" type="priority"/>
    <node id="11768693059" x="4215.35" y="1947.50" type="dead_end"/>
    <node id="11768693062" x="4043.19" y="2073.70" type="priority"/>
    <node id="11768693063" x="4020.69" y="2075.86" type="priority"/>
    <node id="11768693064" x="3763.88" y="1698.16" type="priority"/>
    <node id="11768693065" x="4668.08" y="1500.74" type="priority"/>
    <node id="11768693067" x="4147.70" y="1529.40" type="priority"/>
    <node id="11768693068" x="4402.91" y="2165.32" type="priority"/>
    <node id="11768709169" x="4419.28" y="2181.11" type="priority"/>
    <node id="11768709174" x="2953.15" y="1874.41" type="priority"/>
    <node id="11768709175" x="2847.40" y="1900.40" type="priority"/>
    <node id="11768709176" x="2867.04" y="1896.81" type="priority"/>
    <node id="11768709177" x="2845.35" y="1889.15" type="priority"/>
    <node id="11768709178" x="2823.68" y="1869.42" type="priority"/>
    <node id="11768709179" x="5564.89" y="967.36" type="priority"/>
    <node id="11768709180" x="4244.39" y="1672.14" type="priority"/>
    <node id="11768709182" x="4198.12" y="1537.37" type="priority"/>
    <node id="11768709183" x="4205.79" y="1578.31" type="priority"/>
    <node id="11768709184" x="3517.99" y="1739.54" type="right_before_left"/>
    <node id="11768709185" x="3494.59" y="1742.27" type="priority"/>
    <node id="11768709186" x="3507.86" y="1739.87" type="right_before_left"/>
    <node id="11768709187" x="3506.58" y="1733.58" type="priority"/>
    <node id="11768709188" x="3505.86" y="1729.77" type="priority"/>
    <node id="11768709189" x="3552.14" y="1726.02" type="priority"/>
    <node id="11768709192" x="3548.76" y="1736.98" type="right_before_left"/>
    <node id="11768709193" x="3555.89" y="1717.87" type="priority"/>
    <node id="11768709194" x="3595.59" y="1717.18" type="priority"/>
    <node id="11768709195" x="3631.56" y="1771.95" type="right_before_left"/>
    <node id="11768709196" x="3609.48" y="1749.12" type="right_before_left"/>
    <node id="11768709202" x="3654.40" y="1698.01" type="priority"/>
    <node id="11768709203" x="3656.89" y="1714.44" type="right_before_left"/>
    <node id="11768709204" x="3596.94" y="1724.62" type="right_before_left"/>
    <node id="11768709205" x="3594.19" y="1708.54" type="priority"/>
    <node id="11768709206" x="4439.69" y="2245.03" type="traffic_light" tl="11768709206"/>
    <node id="11768709207" x="3496.14" y="1449.79" type="priority"/>
    <node id="11768709208" x="4568.76" y="2498.88" type="priority"/>
    <node id="11768709209" x="4604.47" y="2459.74" type="priority"/>
    <node id="11768709210" x="3859.43" y="2042.33" type="priority"/>
    <node id="11768740347" x="4175.06" y="2743.07" type="priority"/>
    <node id="11768740356" x="4144.41" y="2780.56" type="priority"/>
    <node id="11768740370" x="3673.54" y="2197.75" type="priority"/>
    <node id="11768740371" x="3684.83" y="2198.13" type="priority"/>
    <node id="11768740372" x="4198.19" y="3042.81" type="priority"/>
    <node id="1191058956" x="2123.64" y="6489.20" type="priority"/>
    <node id="12138153019" x="6200.92" y="2517.11" type="priority"/>
    <node id="12138153024" x="6205.82" y="2475.80" type="right_before_left"/>
    <node id="12138153030" x="6223.38" y="2395.92" type="priority"/>
    <node id="12138156633" x="5734.53" y="2315.16" type="priority"/>
    <node id="12138156642" x="5700.07" y="2299.51" type="right_before_left"/>
    <node id="12138156643" x="5602.12" y="2303.68" type="right_before_left"/>
    <node id="12138156647" x="5577.31" y="2071.84" type="priority"/>
    <node id="12138156651" x="5601.89" y="2155.70" type="right_before_left"/>
    <node id="12138156659" x="5585.11" y="2198.35" type="right_before_left"/>
    <node id="12138156661" x="5657.38" y="2201.44" type="right_before_left"/>
    <node id="12138156662" x="5664.62" y="2216.53" type="right_before_left"/>
    <node id="12138156663" x="5688.92" y="2299.95" type="right_before_left"/>
    <node id="12138156666" x="5670.10" y="2222.81" type="right_before_left"/>
    <node id="12138156671" x="5736.87" y="2245.71" type="right_before_left"/>
    <node id="12138156686" x="5621.69" y="2313.33" type="right_before_left"/>
    <node id="12138156700" x="5536.85" y="2271.50" type="right_before_left"/>
    <node id="12138156701" x="5809.78" y="2494.97" type="priority"/>
    <node id="12138156704" x="5802.37" y="2524.49" type="right_before_left"/>
    <node id="12138156705" x="5833.70" y="2512.54" type="priority"/>
    <node id="12138156706" x="5730.44" y="2545.95" type="right_before_left"/>
    <node id="12138156711" x="5656.19" y="2455.60" type="priority"/>
    <node id="12138156712" x="5682.36" y="2467.96" type="right_before_left"/>
    <node id="12138156713" x="5644.05" y="2485.24" type="priority"/>
    <node id="12138156714" x="5672.71" y="2498.11" type="right_before_left"/>
    <node id="12138156715" x="5639.18" y="2516.08" type="priority"/>
    <node id="12138156717" x="5691.43" y="2549.25" type="right_before_left"/>
    <node id="12138156718" x="5742.96" y="2380.19" type="right_before_left"/>
    <node id="12138156719" x="5713.37" y="2372.93" type="right_before_left"/>
    <node id="12138156722" x="5664.29" y="2528.55" type="right_before_left"/>
    <node id="12138156731" x="5760.40" y="2540.49" type="right_before_left"/>
    <node id="12138156744" x="5795.90" y="2364.04" type="right_before_left"/>
    <node id="12138156753" x="5519.25" y="2264.21" type="priority"/>
    <node id="12138594757" x="6282.15" y="1140.92" type="priority"/>
    <node id="12138594762" x="6138.24" y="1145.33" type="priority"/>
    <node id="12138609811" x="5347.51" y="1370.90" type="priority"/>
    <node id="12138609812" x="5332.70" y="1410.13" type="priority"/>
    <node id="12138609845" x="4980.78" y="1587.70" type="right_before_left"/>
    <node id="12138609846" x="4995.39" y="1544.62" type="priority"/>
    <node id="12138609867" x="4741.95" y="1723.33" type="priority"/>
    <node id="12138609868" x="4702.95" y="1710.62" type="right_before_left"/>
    <node id="12138609869" x="4702.59" y="1630.31" type="priority"/>
    <node id="12138609874" x="4331.70" y="1862.01" type="priority"/>
    <node id="12138609876" x="4338.42" y="1817.21" type="priority"/>
    <node id="12138609877" x="4279.87" y="1824.17" type="priority"/>
    <node id="12138609878" x="4291.67" y="1823.70" type="right_before_left"/>
    <node id="12138609879" x="4316.75" y="1822.93" type="priority"/>
    <node id="12138609880" x="4290.99" y="1806.71" type="right_before_left"/>
    <node id="12138609881" x="4292.70" y="1857.46" type="right_before_left"/>
    <node id="12138609888" x="4126.16" y="917.42" type="priority"/>
    <node id="12138609889" x="4170.38" y="914.71" type="right_before_left"/>
    <node id="12138609890" x="4124.71" y="905.18" type="priority"/>
    <node id="12138609896" x="3966.28" y="971.96" type="priority"/>
    <node id="12138609902" x="4079.47" y="1053.95" type="right_before_left"/>
    <node id="12138609904" x="4090.42" y="1065.33" type="right_before_left"/>
    <node id="12138609908" x="4078.61" y="1563.66" type="priority"/>
    <node id="12138609909" x="4066.70" y="1544.93" type="right_before_left"/>
    <node id="12138609910" x="4110.66" y="1517.43" type="priority"/>
    <node id="12138609911" x="4086.96" y="1531.79" type="right_before_left"/>
    <node id="12138609913" x="4110.80" y="1568.48" type="priority"/>
    <node id="12138609914" x="3615.16" y="1755.93" type="right_before_left"/>
    <node id="12138609916" x="3539.49" y="1607.15" type="priority"/>
    <node id="12138609923" x="3626.71" y="1671.04" type="priority"/>
    <node id="12138609927" x="2669.63" y="1993.64" type="priority"/>
    <node id="12138609938" x="2472.60" y="2023.33" type="right_before_left"/>
    <node id="12138609939" x="2577.83" y="2051.29" type="right_before_left"/>
    <node id="12138609943" x="2589.74" y="2069.58" type="priority"/>
    <node id="12138609944" x="2351.11" y="2340.49" type="priority"/>
    <node id="12140769153" x="3132.68" y="2474.09" type="priority"/>
    <node id="12140769157" x="3090.96" y="2417.57" type="priority"/>
    <node id="12140769159" x="3984.38" y="2429.05" type="priority"/>
    <node id="12140769172" x="4580.66" y="2419.22" type="priority"/>
    <node id="12140769173" x="4559.32" y="2435.13" type="priority"/>
    <node id="12140769179" x="3780.21" y="2449.03" type="right_before_left"/>
    <node id="12140769180" x="3789.44" y="2457.90" type="priority"/>
    <node id="12140769189" x="4058.13" y="2412.95" type="priority"/>
    <node id="12140769191" x="4087.63" y="2136.69" type="priority"/>
    <node id="12140769192" x="4047.02" y="2079.90" type="priority"/>
    <node id="12140772804" x="4383.61" y="2569.01" type="priority"/>
    <node id="12140772807" x="4385.73" y="2666.47" type="priority"/>
    <node id="12140772809" x="4426.98" y="2635.39" type="priority"/>
    <node id="12140772813" x="4402.84" y="2650.74" type="right_before_left"/>
    <node id="12140772820" x="4335.05" y="2568.56" type="priority"/>
    <node id="12140772821" x="4718.10" y="2453.95" type="priority"/>
    <node id="12140772827" x="4701.32" y="2570.31" type="priority"/>
    <node id="12294203707" x="4032.57" y="1159.03" type="priority"/>
    <node id="12294203710" x="4064.44" y="1119.61" type="priority"/>
    <node id="12294203717" x="4138.90" y="1039.23" type="priority"/>
    <node id="12294203721" x="4184.77" y="1003.10" type="priority"/>
    <node id="12294203727" x="4014.01" y="1177.22" type="priority"/>
    <node id="12294203728" x="4049.41" y="1142.22" type="priority"/>
    <node id="12294203734" x="3985.12" y="1137.27" type="right_before_left"/>
    <node id="12294203735" x="4086.54" y="1163.81" type="priority"/>
    <node id="12294203737" x="4080.16" y="1135.69" type="right_before_left"/>
    <node id="12294203738" x="4080.88" y="1123.92" type="right_before_left"/>
    <node id="12294203740" x="4097.45" y="1120.99" type="right_before_left"/>
    <node id="12294203741" x="4083.77" y="1163.61" type="priority"/>
    <node id="12294203743" x="4080.66" y="1163.38" type="priority"/>
    <node id="12294203745" x="4077.95" y="1163.18" type="priority"/>
    <node id="12294203746" x="4073.87" y="1162.88" type="priority"/>
    <node id="12294203748" x="4073.58" y="1135.38" type="right_before_left"/>
    <node id="12294203749" x="4064.41" y="1162.18" type="priority"/>
    <node id="12294203751" x="4067.42" y="1162.40" type="priority"/>
    <node id="12294203753" x="4070.37" y="1162.62" type="priority"/>
    <node id="12294203757" x="4037.08" y="1159.49" type="priority"/>
    <node id="12294203759" x="4090.50" y="1107.18" type="priority"/>
    <node id="12294203760" x="4094.80" y="1102.82" type="dead_end"/>
    <node id="12294203761" x="4122.45" y="1074.69" type="dead_end"/>
    <node id="12294203776" x="4382.30" y="954.33" type="dead_end"/>
    <node id="12294203777" x="4527.34" y="998.51" type="dead_end"/>
    <node id="12294203789" x="4384.89" y="946.13" type="dead_end"/>
    <node id="12294203790" x="4530.61" y="988.75" type="dead_end"/>
    <node id="12294203792" x="4184.61" y="995.35" type="dead_end"/>
    <node id="12294203793" x="4174.38" y="1000.87" type="dead_end"/>
    <node id="12294203794" x="4158.46" y="1013.08" type="dead_end"/>
    <node id="12294203795" x="4131.06" y="1036.19" type="dead_end"/>
    <node id="12294203796" x="4113.47" y="1030.27" type="dead_end"/>
    <node id="12294203798" x="4163.71" y="1008.95" type="priority"/>
    <node id="12294203799" x="4190.46" y="990.54" type="priority"/>
    <node id="12294203800" x="4121.04" y="1032.94" type="priority"/>
    <node id="12294208001" x="4136.77" y="1040.92" type="priority"/>
    <node id="12294208002" x="4140.72" y="1045.53" type="priority"/>
    <node id="12294208003" x="4145.15" y="1049.98" type="dead_end"/>
    <node id="12294208006" x="4042.30" y="1135.49" type="priority"/>
    <node id="12294208007" x="4007.88" y="1171.89" type="priority"/>
    <node id="12294208008" x="3999.92" y="1180.13" type="priority"/>
    <node id="12294208009" x="3943.50" y="1237.34" type="dead_end"/>
    <node id="12294208012" x="4036.55" y="1154.86" type="priority"/>
    <node id="12294208013" x="4033.49" y="1152.02" type="priority"/>
    <node id="12294208014" x="4029.72" y="1148.43" type="dead_end"/>
    <node id="12294208015" x="4038.73" y="1157.05" type="dead_end"/>
    <node id="12294208017" x="3951.88" y="1245.18" type="dead_end"/>
    <node id="12294208018" x="3920.09" y="1276.90" type="dead_end"/>
    <node id="12294208019" x="3911.03" y="1286.10" type="dead_end"/>
    <node id="12294208026" x="3955.69" y="1544.46" type="dead_end"/>
    <node id="12294208027" x="3820.14" y="1359.21" type="dead_end"/>
    <node id="12294208033" x="3944.01" y="1552.11" type="dead_end"/>
    <node id="12294208035" x="3837.72" y="1396.91" type="dead_end"/>
    <node id="12294208040" x="3832.87" y="1388.16" type="dead_end"/>
    <node id="12294208041" x="3828.69" y="1352.13" type="dead_end"/>
    <node id="12294208046" x="3898.08" y="1282.36" type="dead_end"/>
    <node id="12294208048" x="3902.57" y="1286.50" type="traffic_light" tl="12294208048"/>
    <node id="12294208049" x="3906.63" y="1290.37" type="dead_end"/>
    <node id="12294208050" x="3937.17" y="1243.89" type="priority"/>
    <node id="12294208051" x="3947.42" y="1241.12" type="priority"/>
    <node id="12294208052" x="3915.65" y="1280.78" type="traffic_light" tl="12294208052"/>
    <node id="12294208055" x="4019.69" y="1195.60" type="dead_end"/>
    <node id="12294208059" x="4087.29" y="1061.76" type="priority"/>
    <node id="12294208060" x="4116.13" y="1037.32" type="priority"/>
    <node id="12294208061" x="4125.66" y="1034.48" type="priority"/>
    <node id="12294208065" x="4272.78" y="1647.67" type="dead_end"/>
    <node id="12295952651" x="4110.53" y="1472.78" type="priority"/>
    <node id="12295966830" x="4117.83" y="1255.68" type="priority"/>
    <node id="12296039416" x="3988.40" y="1621.48" type="dead_end"/>
    <node id="12296039418" x="4000.83" y="1614.22" type="dead_end"/>
    <node id="12296039420" x="3949.61" y="1548.59" type="priority"/>
    <node id="12296039422" x="4021.16" y="1619.13" type="dead_end"/>
    <node id="12296039423" x="4106.51" y="1562.11" type="priority"/>
    <node id="12296039425" x="4144.31" y="1531.61" type="dead_end"/>
    <node id="12296039426" x="4107.75" y="1474.62" type="dead_end"/>
    <node id="12296039434" x="3982.48" y="1636.44" type="dead_end"/>
    <node id="12296039436" x="3884.63" y="1651.94" type="dead_end"/>
    <node id="12296039442" x="4008.58" y="1657.92" type="dead_end"/>
    <node id="12296039446" x="3985.02" y="1649.36" type="dead_end"/>
    <node id="12296039447" x="3887.25" y="1666.01" type="dead_end"/>
    <node id="12296039448" x="3799.17" y="1681.50" type="priority"/>
    <node id="12296039450" x="4020.86" y="1652.30" type="dead_end"/>
    <node id="12296039455" x="4027.67" y="1631.38" type="dead_end"/>
    <node id="12296039456" x="4148.22" y="1552.56" type="dead_end"/>
    <node id="12296039457" x="4191.58" y="1521.64" type="dead_end"/>
    <node id="12296039459" x="4201.54" y="1527.78" type="dead_end"/>
    <node id="12296039461" x="4196.52" y="1534.77" type="dead_end"/>
    <node id="12296039462" x="4194.49" y="1536.12" type="priority"/>
    <node id="12296039471" x="3839.82" y="1638.06" type="right_before_left"/>
    <node id="12296039473" x="3813.53" y="1659.34" type="priority"/>
    <node id="12296039474" x="3825.93" y="1641.75" type="right_before_left"/>
    <node id="12296039475" x="3829.51" y="1656.05" type="priority"/>
    <node id="12296039476" x="3837.21" y="1607.67" type="right_before_left"/>
    <node id="12296039477" x="3801.51" y="1616.74" type="priority"/>
    <node id="12296039478" x="3874.66" y="1567.06" type="priority"/>
    <node id="12296039479" x="3715.40" y="1675.36" type="dead_end"/>
    <node id="12296039480" x="3786.25" y="1667.69" type="dead_end"/>
    <node id="12296039481" x="3826.95" y="1660.45" type="dead_end"/>
    <node id="12296039482" x="3829.45" y="1675.81" type="dead_end"/>
    <node id="12296039484" x="3765.40" y="1695.10" type="dead_end"/>
    <node id="12296039488" x="3789.36" y="1683.49" type="dead_end"/>
    <node id="12296039494" x="3748.65" y="1696.48" type="dead_end"/>
    <node id="12296039496" x="3762.49" y="1701.17" type="dead_end"/>
    <node id="12296039692" x="4469.32" y="1408.58" type="dead_end"/>
    <node id="12296039696" x="4478.39" y="1333.79" type="dead_end"/>
    <node id="12296039700" x="4485.28" y="1327.81" type="dead_end"/>
    <node id="12296039902" x="3733.78" y="1716.87" type="dead_end"/>
    <node id="12296039906" x="3708.75" y="1709.44" type="dead_end"/>
    <node id="12296039908" x="3700.58" y="1700.74" type="dead_end"/>
    <node id="12296039914" x="3701.13" y="1685.00" type="dead_end"/>
    <node id="12296039915" x="3709.70" y="1677.50" type="dead_end"/>
    <node id="12296039916" x="3765.80" y="1522.14" type="priority"/>
    <node id="12296039921" x="3740.71" y="1675.09" type="dead_end"/>
    <node id="12296039941" x="4150.80" y="1527.62" type="dead_end"/>
    <node id="12296039942" x="4114.19" y="1470.57" type="dead_end"/>
    <node id="12296039948" x="4140.22" y="1539.96" type="dead_end"/>
    <node id="12296039950" x="4209.28" y="1578.36" type="dead_end"/>
    <node id="12296039951" x="4209.44" y="1527.63" type="dead_end"/>
    <node id="12296039954" x="4269.49" y="1471.45" type="dead_end"/>
    <node id="12296039961" x="4151.07" y="1635.46" type="priority"/>
    <node id="12296039962" x="4201.28" y="1608.05" type="priority"/>
    <node id="12296039963" x="4197.86" y="1607.98" type="right_before_left"/>
    <node id="12296039971" x="4406.31" y="1893.56" type="priority"/>
    <node id="12296039993" x="4280.66" y="1464.31" type="dead_end"/>
    <node id="12296039997" x="4285.25" y="1459.91" type="dead_end"/>
    <node id="12296039998" x="4388.68" y="1390.64" type="dead_end"/>
    <node id="12296040003" x="4464.72" y="1415.76" type="dead_end"/>
    <node id="12296040007" x="4203.89" y="1498.82" type="dead_end"/>
    <node id="12296040009" x="4381.93" y="1381.14" type="dead_end"/>
    <node id="12296040010" x="4421.06" y="1354.98" type="dead_end"/>
    <node id="12296040012" x="4185.11" y="1512.02" type="dead_end"/>
    <node id="12296040013" x="4192.47" y="1506.90" type="dead_end"/>
    <node id="12296040017" x="4209.29" y="1496.14" type="dead_end"/>
    <node id="12296040018" x="4212.44" y="1500.68" type="traffic_light" tl="12296040018"/>
    <node id="12296040019" x="4216.43" y="1506.46" type="dead_end"/>
    <node id="12296040022" x="4212.35" y="1510.11" type="priority"/>
    <node id="12296040023" x="4200.68" y="1541.37" type="dead_end"/>
    <node id="12296040025" x="4202.39" y="1578.19" type="dead_end"/>
    <node id="12296040026" x="4202.33" y="1580.29" type="dead_end"/>
    <node id="12296040028" x="4233.10" y="1480.25" type="dead_end"/>
    <node id="12296040029" x="4240.24" y="1490.70" type="dead_end"/>
    <node id="12296055907" x="4428.07" y="1365.81" type="dead_end"/>
    <node id="12296055909" x="4466.26" y="1324.95" type="dead_end"/>
    <node id="12296055921" x="5345.75" y="1374.92" type="priority"/>
    <node id="12296055926" x="4656.42" y="1299.03" type="dead_end"/>
    <node id="12296055927" x="4703.30" y="1299.71" type="dead_end"/>
    <node id="12296055929" x="4703.18" y="1310.23" type="dead_end"/>
    <node id="12296055930" x="4647.97" y="1298.98" type="priority"/>
    <node id="12296055931" x="4656.35" y="1310.09" type="dead_end"/>
    <node id="12296055932" x="4646.82" y="1304.57" type="priority"/>
    <node id="12296211543" x="4578.12" y="1555.85" type="dead_end"/>
    <node id="12296211545" x="4597.12" y="1484.51" type="dead_end"/>
    <node id="12296211548" x="4647.17" y="1499.12" type="dead_end"/>
    <node id="12296211554" x="4638.80" y="1506.36" type="dead_end"/>
    <node id="12296211555" x="4580.96" y="1545.14" type="priority"/>
    <node id="12296211556" x="4627.26" y="1522.48" type="right_before_left"/>
    <node id="12296211560" x="4613.37" y="1531.02" type="right_before_left"/>
    <node id="12296211562" x="4571.11" y="1587.30" type="dead_end"/>
    <node id="12296211564" x="4666.52" y="1504.75" type="dead_end"/>
    <node id="12296211567" x="4669.41" y="1497.16" type="dead_end"/>
    <node id="12296211569" x="4664.99" y="1504.84" type="dead_end"/>
    <node id="12296211570" x="4636.60" y="1509.35" type="right_before_left"/>
    <node id="12296211571" x="4636.02" y="1517.16" type="right_before_left"/>