<?xml version="1.0" encoding="UTF-8"?>

<!-- generated on 2025-04-04 16:23:56 by Eclipse SUMO netconvert Version 1.19.0
<configuration xmlns:xsi="http://www.w3.org/2001/XMLSchema-instance" xsi:noNamespaceSchemaLocation="http://sumo.dlr.de/xsd/netconvertConfiguration.xsd">

    <input>
        <sumo-net-file value="la_ferte/la_ferte.net.xml"/>
    </input>

    <output>
        <plain-output-prefix value="la_ferte/la_ferte"/>
    </output>

    <processing>
        <geometry.min-radius.fix.railways value="false"/>
        <geometry.max-grade.fix value="false"/>
        <offset.disable-normalization value="true"/>
        <lefthand value="0"/>
    </processing>

    <tls_building>
        <tls.ignore-internal-junction-jam value="1"/>
    </tls_building>

    <junctions>
        <no-turnarounds value="true"/>
        <junctions.corner-detail value="5"/>
        <junctions.limit-turn-speed value="5.50"/>
        <rectangular-lane-cut value="0"/>
    </junctions>

    <pedestrian>
        <walkingareas value="0"/>
    </pedestrian>

</configuration>
-->

<tlLogics version="1.16" xmlns:xsi="http://www.w3.org/2001/XMLSchema-instance" xsi:noNamespaceSchemaLocation="http://sumo.dlr.de/xsd/tllogic_file.xsd">
    <tlLogic id="10293557193" type="static" programID="0" offset="0">
        <phase duration="82" state="GG"/>
        <phase duration="3"  state="yy"/>
        <phase duration="5"  state="rr"/>
    </tlLogic>
    <tlLogic id="cluster_11768709182_12296040018_12296040027_12318888607_#6more" type="static" programID="0" offset="0">
        <phase duration="39" state="GGGggrrrrGGGggrrrr"/>
        <phase duration="6"  state="yyyyyrrrryyyyyrrrr"/>
        <phase duration="39" state="rrrrrgGggrrrrrGGgg"/>
        <phase duration="6"  state="rrrrryyyyrrrrryyyy"/>
    </tlLogic>
    <tlLogic id="cluster_11768709194_11768709205_12299657057_12343391086_#2more" type="static" programID="0" offset="0">
        <phase duration="39" state="GGGgrrrrGGGgrrrr"/>
        <phase duration="6"  state="yyyyrrrryyyyrrrr"/>
        <phase duration="39" state="rrrrGGggrrrrGGgg"/>
        <phase duration="6"  state="rrrryyyyrrrryyyy"/>
    </tlLogic>
    <tlLogic id="cluster_11768709206_1487549188_1512039462_3175140476_#2more" type="static" programID="0" offset="0">
        <phase duration="24" state="GGgrrrGggrrr"/>
        <phase duration="6"  state="yyyrrryyyrrr"/>
        <phase duration="24" state="rrrGGGrrrrrr"/>
        <phase duration="6"  state="rrryyyrrrrrr"/>
        <phase duration="24" state="GrrrrrrrrGGg"/>
        <phase duration="6"  state="yrrrrrrrryyy"/>
    </tlLogic>
    <tlLogic id="cluster_12294208048_12294208052_1510767802" type="static" programID="0" offset="0">
        <phase duration="39" state="rrrGGgGgg"/>
        <phase duration="6"  state="rrryyyyyy"/>
        <phase duration="39" state="GGgGrrrrr"/>
        <phase duration="6"  state="yyyyrrrrr"/>
    </tlLogic>
    <tlLogic id="cluster_12320847760_12320847763_12343302627_1510713257_#5more" type="static" programID="0" offset="0">
        <phase duration="20" state="rrrrrrGGGgggrrrrrrrrrrrrGGGggg"/>
        <phase duration="6"  state="rrrrrryyyyyyrrrrrrrrrrrryyyyyy"/>
        <phase duration="20" state="GGGrrrrrrrrrgGggggrrrrrrrrrrrr"/>
        <phase duration="6"  state="yyyrrrrrrrrrgyggggrrrrrrrrrrrr"/>
        <phase duration="6"  state="rrrGggrrrrrrgrgGGGrrrrrrrrrrrr"/>
        <phase duration="6"  state="rrryyyrrrrrryryyyyrrrrrrrrrrrr"/>
        <phase duration="20" state="rrrrrrrrrrrrrrrrrrGGGGGgGrrrrr"/>
        <phase duration="6"  state="rrrrrrrrrrrrrrrrrryyyyyyyrrrrr"/>
    </tlLogic>
    <tlLogic id="joinedS_12296277038_cluster_12296277037_12337051939_1511667346_3498521687" type="static" programID="0" offset="0">
        <phase duration="39" state="GGGggrrrGGg"/>
        <phase duration="6"  state="yyyyyrrryyy"/>
        <phase duration="39" state="GrrrrGGgGrr"/>
        <phase duration="6"  state="yrrrryyyyrr"/>
    </tlLogic>
    <tlLogic id="joinedS_12318702073_3175140472_cluster_12297066156_12297066157_12318702067_1836605985" type="static" programID="0" offset="0">
        <phase duration="12" state="GGrrrrrrrrrrrrr"/>
        <phase duration="6"  state="yyrrrrrrrrrrrrr"/>
        <phase duration="12" state="rrGGrrrrGGGrrrr"/>
        <phase duration="6"  state="rryyrrrryyyrrrr"/>
        <phase duration="12" state="rrrrGGrrrrrrrrr"/>
        <phase duration="6"  state="rrrryyrrrrrrrrr"/>
        <phase duration="12" state="rrGrrrGGrrrrrrr"/>
        <phase duration="6"  state="rryrrryyrrrrrrr"/>
        <phase duration="12" state="rrGrrrrrrrrGGGG"/>
        <phase duration="6"  state="rryrrrrrrrryyyy"/>
    </tlLogic>
    <tlLogic id="joinedS_1510713211_3175140522_cluster_1510713223_1510713224_1830112063_1830112068_#2more" type="static" programID="0" offset="0">
        <phase duration="12" state="GGrGGrrrrrrrr"/>
        <phase duration="6"  state="yyryyrrrrrrrr"/>
        <phase duration="12" state="rGGrrGGrrrrrr"/>
        <phase duration="6"  state="ryyrryyrrrrrr"/>
        <phase duration="12" state="rGrrrrrGGrrrr"/>
        <phase duration="6"  state="ryrrrrryyrrrr"/>
        <phase duration="12" state="rGrrrrrrrGGrr"/>
        <phase duration="6"  state="ryrrrrrrryyrr"/>
        <phase duration="12" state="rGrrrrrrrrrGG"/>
        <phase duration="6"  state="ryrrrrrrrrryy"/>
    </tlLogic>

    <connection from="-1331389460#2" to="-1331389460#1" fromLane="0" toLane="0" tl="joinedS_12318702073_3175140472_cluster_12297066156_12297066157_12318702067_1836605985" linkIndex="2"/>
    <connection from="-1331646067#1" to="1331646067#1" fromLane="0" toLane="0" tl="cluster_12320847760_12320847763_12343302627_1510713257_#5more" linkIndex="17"/>
    <connection from="-1331646067#1" to="-319815180#4" fromLane="0" toLane="0" tl="cluster_12320847760_12320847763_12343302627_1510713257_#5more" linkIndex="12"/>
    <connection from="-1331646067#1" to="185194509#1" fromLane="0" toLane="0" tl="cluster_12320847760_12320847763_12343302627_1510713257_#5more" linkIndex="13"/>
    <connection from="-1331646067#1" to="319815194#1" fromLane="0" toLane="0" tl="cluster_12320847760_12320847763_12343302627_1510713257_#5more" linkIndex="14"/>
    <connection from="-1331646067#1" to="137755926#0" fromLane="0" toLane="0" tl="cluster_12320847760_12320847763_12343302627_1510713257_#5more" linkIndex="15"/>
    <connection from="-1331646067#1" to="-340561433#2" fromLane="0" toLane="0" tl="cluster_12320847760_12320847763_12343302627_1510713257_#5more" linkIndex="16"/>
    <connection from="-1333470863#0" to="782034499#1" fromLane="0" toLane="0" tl="joinedS_12296277038_cluster_12296277037_12337051939_1511667346_3498521687" linkIndex="8"/>
    <connection from="-1333470863#0" to="-1333470865#0" fromLane="0" toLane="0" tl="joinedS_12296277038_cluster_12296277037_12337051939_1511667346_3498521687" linkIndex="9"/>
    <connection from="-1333470863#0" to="1329849035" fromLane="0" toLane="0" tl="joinedS_12296277038_cluster_12296277037_12337051939_1511667346_3498521687" linkIndex="10"/>
    <connection from="-1333476384#0" to="-255254791#0" fromLane="0" toLane="0" tl="cluster_11768709206_1487549188_1512039462_3175140476_#2more" linkIndex="6"/>
    <connection from="-1333476384#0" to="137893094#1" fromLane="0" toLane="0" tl="cluster_11768709206_1487549188_1512039462_3175140476_#2more" linkIndex="7"/>
    <connection from="-1333476384#0" to="1333476383#1" fromLane="0" toLane="0" tl="cluster_11768709206_1487549188_1512039462_3175140476_#2more" linkIndex="8"/>
    <connection from="-1333504732#2" to="-1333504732#0" fromLane="0" toLane="0" tl="10293557193" linkIndex="0"/>
    <connection from="-1333686904#2" to="137763898#1" fromLane="0" toLane="0" tl="cluster_11768709182_12296040018_12296040027_12318888607_#6more" linkIndex="9"/>
    <connection from="-1333686904#2" to="-319815170#1" fromLane="0" toLane="0" tl="cluster_11768709182_12296040018_12296040027_12318888607_#6more" linkIndex="10"/>
    <connection from="-1333686904#2" to="-319815170#1" fromLane="1" toLane="1" tl="cluster_11768709182_12296040018_12296040027_12318888607_#6more" linkIndex="11"/>
    <connection from="-1333686904#2" to="1333686903" fromLane="1" toLane="0" tl="cluster_11768709182_12296040018_12296040027_12318888607_#6more" linkIndex="12"/>
    <connection from="-1333686904#2" to="1333686904#1" fromLane="1" toLane="1" tl="cluster_11768709182_12296040018_12296040027_12318888607_#6more" linkIndex="13"/>
    <connection from="-1337945913#0" to="-370259790#0" fromLane="0" toLane="0" tl="cluster_11768709194_11768709205_12299657057_12343391086_#2more" linkIndex="12"/>
    <connection from="-1337945913#0" to="1334182951#1" fromLane="0" toLane="0" tl="cluster_11768709194_11768709205_12299657057_12343391086_#2more" linkIndex="13"/>
    <connection from="-1337945913#0" to="370259790#4" fromLane="0" toLane="1" tl="cluster_11768709194_11768709205_12299657057_12343391086_#2more" linkIndex="14"/>
    <connection from="-1337945913#0" to="1337945914#1" fromLane="0" toLane="0" tl="cluster_11768709194_11768709205_12299657057_12343391086_#2more" linkIndex="15"/>
    <connection from="-1337945921" to="370259790#4" fromLane="0" toLane="0" tl="cluster_11768709194_11768709205_12299657057_12343391086_#2more" linkIndex="4"/>
    <connection from="-1337945921" to="1337945914#1" fromLane="0" toLane="0" tl="cluster_11768709194_11768709205_12299657057_12343391086_#2more" linkIndex="5"/>
    <connection from="-1337945921" to="-370259790#0" fromLane="0" toLane="1" tl="cluster_11768709194_11768709205_12299657057_12343391086_#2more" linkIndex="6"/>
    <connection from="-1337945921" to="1334182951#1" fromLane="0" toLane="0" tl="cluster_11768709194_11768709205_12299657057_12343391086_#2more" linkIndex="7"/>
    <connection from="-137755926#0" to="-340561433#2" fromLane="0" toLane="0" tl="cluster_12320847760_12320847763_12343302627_1510713257_#5more" linkIndex="24"/>
    <connection from="-137755926#0" to="1331646067#1" fromLane="0" toLane="0" tl="cluster_12320847760_12320847763_12343302627_1510713257_#5more" linkIndex="25"/>
    <connection from="-137755926#0" to="-319815180#4" fromLane="0" toLane="0" tl="cluster_12320847760_12320847763_12343302627_1510713257_#5more" linkIndex="26"/>
    <connection from="-137755926#0" to="185194509#1" fromLane="0" toLane="0" tl="cluster_12320847760_12320847763_12343302627_1510713257_#5more" linkIndex="27"/>
    <connection from="-137755926#0" to="319815194#1" fromLane="0" toLane="1" tl="cluster_12320847760_12320847763_12343302627_1510713257_#5more" linkIndex="28"/>
    <connection from="-137755926#0" to="137755926#0" fromLane="0" toLane="0" tl="cluster_12320847760_12320847763_12343302627_1510713257_#5more" linkIndex="29"/>
    <connection from="-137763889#2" to="-311794229#5" fromLane="0" toLane="0" tl="cluster_12294208048_12294208052_1510767802" linkIndex="0"/>
    <connection from="-137763889#2" to="241775827#0" fromLane="0" toLane="0" tl="cluster_12294208048_12294208052_1510767802" linkIndex="1"/>
    <connection from="-137763889#2" to="137763889#1" fromLane="0" toLane="0" tl="cluster_12294208048_12294208052_1510767802" linkIndex="2"/>
    <connection from="-137763898#2" to="-319815170#1" fromLane="0" toLane="0" tl="cluster_11768709182_12296040018_12296040027_12318888607_#6more" linkIndex="5"/>
    <connection from="-137763898#2" to="1333686903" fromLane="0" toLane="0" tl="cluster_11768709182_12296040018_12296040027_12318888607_#6more" linkIndex="6"/>
    <connection from="-137763898#2" to="1333686904#1" fromLane="0" toLane="1" tl="cluster_11768709182_12296040018_12296040027_12318888607_#6more" linkIndex="7"/>
    <connection from="-137763898#2" to="137763898#1" fromLane="0" toLane="0" tl="cluster_11768709182_12296040018_12296040027_12318888607_#6more" linkIndex="8"/>
    <connection from="-137893094#1" to="1333476383#1" fromLane="0" toLane="0" tl="cluster_11768709206_1487549188_1512039462_3175140476_#2more" linkIndex="9"/>
    <connection from="-137893094#1" to="-255254791#0" fromLane="0" toLane="0" tl="cluster_11768709206_1487549188_1512039462_3175140476_#2more" linkIndex="10"/>
    <connection from="-137893094#1" to="137893094#1" fromLane="0" toLane="0" tl="cluster_11768709206_1487549188_1512039462_3175140476_#2more" linkIndex="11"/>
    <connection from="-241775827#0" to="137763889#1" fromLane="0" toLane="0" tl="cluster_12294208048_12294208052_1510767802" linkIndex="3"/>
    <connection from="-241775827#0" to="-311794229#5" fromLane="0" toLane="0" tl="cluster_12294208048_12294208052_1510767802" linkIndex="4"/>
    <connection from="-241775827#0" to="241775827#0" fromLane="0" toLane="0" tl="cluster_12294208048_12294208052_1510767802" linkIndex="5"/>
    <connection from="-319815180#0" to="-370094621" fromLane="0" toLane="0" tl="joinedS_1510713211_3175140522_cluster_1510713223_1510713224_1830112063_1830112068_#2more" linkIndex="9"/>
    <connection from="-319815180#0" to="1333486520#1" fromLane="0" toLane="0" tl="joinedS_1510713211_3175140522_cluster_1510713223_1510713224_1830112063_1830112068_#2more" linkIndex="10"/>
    <connection from="-319815194#2" to="137755926#0" fromLane="0" toLane="0" tl="cluster_12320847760_12320847763_12343302627_1510713257_#5more" linkIndex="0"/>
    <connection from="-319815194#2" to="-340561433#2" fromLane="0" toLane="0" tl="cluster_12320847760_12320847763_12343302627_1510713257_#5more" linkIndex="1"/>
    <connection from="-319815194#2" to="1331646067#1" fromLane="0" toLane="0" tl="cluster_12320847760_12320847763_12343302627_1510713257_#5more" linkIndex="2"/>
    <connection from="-319815194#2" to="-319815180#4" fromLane="0" toLane="0" tl="cluster_12320847760_12320847763_12343302627_1510713257_#5more" linkIndex="3"/>
    <connection from="-319815194#2" to="185194509#1" fromLane="1" toLane="0" tl="cluster_12320847760_12320847763_12343302627_1510713257_#5more" linkIndex="4"/>
    <connection from="-319815194#2" to="319815194#1" fromLane="1" toLane="1" tl="cluster_12320847760_12320847763_12343302627_1510713257_#5more" linkIndex="5"/>
    <connection from="-342896409#0" to="-1333470863#0" fromLane="0" toLane="0" tl="joinedS_12296277038_cluster_12296277037_12337051939_1511667346_3498521687" linkIndex="1"/>
    <connection from="-370094621" to="-319815182#1" fromLane="0" toLane="0" tl="joinedS_1510713211_3175140522_cluster_1510713223_1510713224_1830112063_1830112068_#2more" linkIndex="1"/>
    <connection from="-370259790#5" to="1337945914#1" fromLane="0" toLane="0" tl="cluster_11768709194_11768709205_12299657057_12343391086_#2more" linkIndex="0"/>
    <connection from="-370259790#5" to="-370259790#0" fromLane="0" toLane="0" tl="cluster_11768709194_11768709205_12299657057_12343391086_#2more" linkIndex="1"/>
    <connection from="-370259790#5" to="-370259790#0" fromLane="1" toLane="1" tl="cluster_11768709194_11768709205_12299657057_12343391086_#2more" linkIndex="2"/>
    <connection from="-370259790#5" to="1334182951#1" fromLane="1" toLane="0" tl="cluster_11768709194_11768709205_12299657057_12343391086_#2more" linkIndex="3"/>
    <connection from="-782034499#2" to="-1333470865#0" fromLane="0" toLane="0" tl="joinedS_12296277038_cluster_12296277037_12337051939_1511667346_3498521687" linkIndex="5"/>
    <connection from="-782034499#2" to="1329849035" fromLane="0" toLane="0" tl="joinedS_12296277038_cluster_12296277037_12337051939_1511667346_3498521687" linkIndex="6"/>
    <connection from="-782034499#2" to="782034499#1" fromLane="0" toLane="0" tl="joinedS_12296277038_cluster_12296277037_12337051939_1511667346_3498521687" linkIndex="7"/>
    <connection from="1329849035" to="1333470863#1" fromLane="0" toLane="0" tl="joinedS_12296277038_cluster_12296277037_12337051939_1511667346_3498521687" linkIndex="0"/>
    <connection from="1331389460#0" to="1331389460#2" fromLane="0" toLane="0" tl="joinedS_12318702073_3175140472_cluster_12297066156_12297066157_12318702067_1836605985" linkIndex="3"/>
    <connection from="1331389460#2" to="1331389458" fromLane="0" toLane="0" tl="joinedS_12318702073_3175140472_cluster_12297066156_12297066157_12318702067_1836605985" linkIndex="8"/>
    <connection from="1331389460#2" to="1333504730#1" fromLane="0" toLane="1" tl="joinedS_12318702073_3175140472_cluster_12297066156_12297066157_12318702067_1836605985" linkIndex="9"/>
    <connection from="1331389460#2" to="-1331389460#2" fromLane="0" toLane="0" tl="joinedS_12318702073_3175140472_cluster_12297066156_12297066157_12318702067_1836605985" linkIndex="10"/>
    <connection from="1331389461#0" to="1331389461#1" fromLane="0" toLane="0" tl="joinedS_12318702073_3175140472_cluster_12297066156_12297066157_12318702067_1836605985" linkIndex="0"/>
    <connection from="1331389461#0" to="1331389461#1" fromLane="1" toLane="1" tl="joinedS_12318702073_3175140472_cluster_12297066156_12297066157_12318702067_1836605985" linkIndex="1"/>
    <connection from="1333458138#1" to="1329849035" fromLane="0" toLane="0" tl="joinedS_12296277038_cluster_12296277037_12337051939_1511667346_3498521687" linkIndex="2"/>
    <connection from="1333458138#1" to="782034499#1" fromLane="0" toLane="0" tl="joinedS_12296277038_cluster_12296277037_12337051939_1511667346_3498521687" linkIndex="3"/>
    <connection from="1333458138#1" to="-1333470865#0" fromLane="0" toLane="0" tl="joinedS_12296277038_cluster_12296277037_12337051939_1511667346_3498521687" linkIndex="4"/>
    <connection from="1333504725" to="1333504730#1" fromLane="0" toLane="1" tl="joinedS_12318702073_3175140472_cluster_12297066156_12297066157_12318702067_1836605985" linkIndex="6"/>
    <connection from="1333504725" to="-1331389460#2" fromLane="0" toLane="0" tl="joinedS_12318702073_3175140472_cluster_12297066156_12297066157_12318702067_1836605985" linkIndex="7"/>
    <connection from="1333504728" to="1333504730#1" fromLane="0" toLane="0" tl="joinedS_12318702073_3175140472_cluster_12297066156_12297066157_12318702067_1836605985" linkIndex="4"/>
    <connection from="1333504728" to="1333504730#1" fromLane="1" toLane="1" tl="joinedS_12318702073_3175140472_cluster_12297066156_12297066157_12318702067_1836605985" linkIndex="5"/>
    <connection from="1333504732#0" to="1333504732#1" fromLane="0" toLane="0" tl="10293557193" linkIndex="1"/>
    <connection from="137755930#4" to="1333486520#1" fromLane="0" toLane="0" tl="joinedS_1510713211_3175140522_cluster_1510713223_1510713224_1830112063_1830112068_#2more" linkIndex="11"/>
    <connection from="137755930#4" to="-370094621" fromLane="0" toLane="0" tl="joinedS_1510713211_3175140522_cluster_1510713223_1510713224_1830112063_1830112068_#2more" linkIndex="12"/>
    <connection from="137755943#1" to="319815179#0" fromLane="0" toLane="0" tl="joinedS_1510713211_3175140522_cluster_1510713223_1510713224_1830112063_1830112068_#2more" linkIndex="0"/>
    <connection from="137763856#2" to="1333686904#1" fromLane="0" toLane="0" tl="cluster_11768709182_12296040018_12296040027_12318888607_#6more" linkIndex="14"/>
    <connection from="137763856#2" to="137763898#1" fromLane="0" toLane="0" tl="cluster_11768709182_12296040018_12296040027_12318888607_#6more" linkIndex="15"/>
    <connection from="137763856#2" to="-319815170#1" fromLane="0" toLane="1" tl="cluster_11768709182_12296040018_12296040027_12318888607_#6more" linkIndex="16"/>
    <connection from="137763856#2" to="1333686903" fromLane="0" toLane="0" tl="cluster_11768709182_12296040018_12296040027_12318888607_#6more" linkIndex="17"/>
    <connection from="221509260#0" to="-255254791#0" fromLane="0" toLane="0" tl="cluster_11768709206_1487549188_1512039462_3175140476_#2more" linkIndex="3"/>
    <connection from="221509260#0" to="137893094#1" fromLane="0" toLane="0" tl="cluster_11768709206_1487549188_1512039462_3175140476_#2more" linkIndex="4"/>
    <connection from="221509260#0" to="1333476383#1" fromLane="0" toLane="0" tl="cluster_11768709206_1487549188_1512039462_3175140476_#2more" linkIndex="5"/>
    <connection from="255254791#0" to="137893094#1" fromLane="0" toLane="0" tl="cluster_11768709206_1487549188_1512039462_3175140476_#2more" linkIndex="0"/>
    <connection from="255254791#0" to="1333476383#1" fromLane="0" toLane="0" tl="cluster_11768709206_1487549188_1512039462_3175140476_#2more" linkIndex="1"/>
    <connection from="255254791#0" to="-255254791#0" fromLane="0" toLane="0" tl="cluster_11768709206_1487549188_1512039462_3175140476_#2more" linkIndex="2"/>
    <connection from="311794229#4" to="241775827#0" fromLane="0" toLane="0" tl="cluster_12294208048_12294208052_1510767802" linkIndex="6"/>
    <connection from="311794229#4" to="137763889#1" fromLane="0" toLane="0" tl="cluster_12294208048_12294208052_1510767802" linkIndex="7"/>
    <connection from="311794229#4" to="-311794229#5" fromLane="0" toLane="0" tl="cluster_12294208048_12294208052_1510767802" linkIndex="8"/>
    <connection from="319815170#0" to="1333686903" fromLane="0" toLane="0" tl="cluster_11768709182_12296040018_12296040027_12318888607_#6more" linkIndex="0"/>
    <connection from="319815170#0" to="1333686904#1" fromLane="0" toLane="0" tl="cluster_11768709182_12296040018_12296040027_12318888607_#6more" linkIndex="1"/>
    <connection from="319815170#0" to="1333686904#1" fromLane="1" toLane="1" tl="cluster_11768709182_12296040018_12296040027_12318888607_#6more" linkIndex="2"/>
    <connection from="319815170#0" to="137763898#1" fromLane="1" toLane="0" tl="cluster_11768709182_12296040018_12296040027_12318888607_#6more" linkIndex="3"/>
    <connection from="319815170#0" to="-319815170#1" fromLane="1" toLane="1" tl="cluster_11768709182_12296040018_12296040027_12318888607_#6more" linkIndex="4"/>
    <connection from="319815179#0" to="1333486520#1" fromLane="0" toLane="0" tl="joinedS_1510713211_3175140522_cluster_1510713223_1510713224_1830112063_1830112068_#2more" linkIndex="3"/>
    <connection from="319815179#0" to="-370094621" fromLane="0" toLane="0" tl="joinedS_1510713211_3175140522_cluster_1510713223_1510713224_1830112063_1830112068_#2more" linkIndex="4"/>
    <connection from="319815180#3" to="185194509#1" fromLane="0" toLane="0" tl="cluster_12320847760_12320847763_12343302627_1510713257_#5more" linkIndex="6"/>
    <connection from="319815180#3" to="319815194#1" fromLane="0" toLane="0" tl="cluster_12320847760_12320847763_12343302627_1510713257_#5more" linkIndex="7"/>
    <connection from="319815180#3" to="137755926#0" fromLane="0" toLane="0" tl="cluster_12320847760_12320847763_12343302627_1510713257_#5more" linkIndex="8"/>
    <connection from="319815180#3" to="-340561433#2" fromLane="0" toLane="0" tl="cluster_12320847760_12320847763_12343302627_1510713257_#5more" linkIndex="9"/>
    <connection from="319815180#3" to="1331646067#1" fromLane="0" toLane="0" tl="cluster_12320847760_12320847763_12343302627_1510713257_#5more" linkIndex="10"/>
    <connection from="319815180#3" to="-319815180#4" fromLane="0" toLane="0" tl="cluster_12320847760_12320847763_12343302627_1510713257_#5more" linkIndex="11"/>
    <connection from="319815182#1" to="319815182#2" fromLane="0" toLane="0" tl="joinedS_1510713211_3175140522_cluster_1510713223_1510713224_1830112063_1830112068_#2more" linkIndex="2"/>
    <connection from="319815182#2" to="1333486520#1" fromLane="0" toLane="0" tl="joinedS_1510713211_3175140522_cluster_1510713223_1510713224_1830112063_1830112068_#2more" linkIndex="5"/>
    <connection from="319815182#2" to="-370094621" fromLane="0" toLane="0" tl="joinedS_1510713211_3175140522_cluster_1510713223_1510713224_1830112063_1830112068_#2more" linkIndex="6"/>
    <connection from="340561433#1" to="1331646067#1" fromLane="0" toLane="0" tl="cluster_12320847760_12320847763_12343302627_1510713257_#5more" linkIndex="18"/>
    <connection from="340561433#1" to="-319815180#4" fromLane="0" toLane="0" tl="cluster_12320847760_12320847763_12343302627_1510713257_#5more" linkIndex="19"/>
    <connection from="340561433#1" to="185194509#1" fromLane="0" toLane="0" tl="cluster_12320847760_12320847763_12343302627_1510713257_#5more" linkIndex="20"/>
    <connection from="340561433#1" to="319815194#1" fromLane="0" toLane="1" tl="cluster_12320847760_12320847763_12343302627_1510713257_#5more" linkIndex="21"/>
    <connection from="340561433#1" to="137755926#0" fromLane="0" toLane="0" tl="cluster_12320847760_12320847763_12343302627_1510713257_#5more" linkIndex="22"/>
    <connection from="340561433#1" to="-340561433#2" fromLane="0" toLane="0" tl="cluster_12320847760_12320847763_12343302627_1510713257_#5more" linkIndex="23"/>
    <connection from="370094617#2" to="-1331389460#2" fromLane="0" toLane="0" tl="joinedS_12318702073_3175140472_cluster_12297066156_12297066157_12318702067_1836605985" linkIndex="11"/>
    <connection from="370094617#2" to="1331389458" fromLane="0" toLane="0" tl="joinedS_12318702073_3175140472_cluster_12297066156_12297066157_12318702067_1836605985" linkIndex="12"/>
    <connection from="370094617#2" to="1331389458" fromLane="1" toLane="1" tl="joinedS_12318702073_3175140472_cluster_12297066156_12297066157_12318702067_1836605985" linkIndex="13"/>
    <connection from="370094617#2" to="1333504730#1" fromLane="1" toLane="1" tl="joinedS_12318702073_3175140472_cluster_12297066156_12297066157_12318702067_1836605985" linkIndex="14"/>
    <connection from="370259790#0" to="1334182951#1" fromLane="0" toLane="0" tl="cluster_11768709194_11768709205_12299657057_12343391086_#2more" linkIndex="8"/>
    <connection from="370259790#0" to="370259790#4" fromLane="0" toLane="0" tl="cluster_11768709194_11768709205_12299657057_12343391086_#2more" linkIndex="9"/>
    <connection from="370259790#0" to="370259790#4" fromLane="1" toLane="1" tl="cluster_11768709194_11768709205_12299657057_12343391086_#2more" linkIndex="10"/>
    <connection from="370259790#0" to="1337945914#1" fromLane="1" toLane="0" tl="cluster_11768709194_11768709205_12299657057_12343391086_#2more" linkIndex="11"/>
    <connection from="40814556#7" to="-370094621" fromLane="0" toLane="0" tl="joinedS_1510713211_3175140522_cluster_1510713223_1510713224_1830112063_1830112068_#2more" linkIndex="7"/>
    <connection from="40814556#7" to="1333486520#1" fromLane="0" toLane="0" tl="joinedS_1510713211_3175140522_cluster_1510713223_1510713224_1830112063_1830112068_#2more" linkIndex="8"/>
</tlLogics>
