<?xml version="1.0" encoding="UTF-8"?>

<!-- generated on 2025-04-09 03:28:26 by Eclipse SUMO netconvert Version 1.19.0
<configuration xmlns:xsi="http://www.w3.org/2001/XMLSchema-instance" xsi:noNamespaceSchemaLocation="http://sumo.dlr.de/xsd/netconvertConfiguration.xsd">

    <input>
        <sumo-net-file value="la_ferte/la_ferte.net.xml"/>
    </input>

    <output>
        <plain-output-prefix value="la_ferte/la_ferte"/>
    </output>

    <processing>
        <geometry.min-radius.fix.railways value="false"/>
        <geometry.max-grade.fix value="false"/>
        <offset.disable-normalization value="true"/>
        <lefthand value="0"/>
    </processing>

    <tls_building>
        <tls.ignore-internal-junction-jam value="1"/>
    </tls_building>

    <junctions>
        <no-turnarounds value="true"/>
        <junctions.corner-detail value="5"/>
        <junctions.limit-turn-speed value="5.50"/>
        <rectangular-lane-cut value="0"/>
    </junctions>

    <pedestrian>
        <walkingareas value="0"/>
    </pedestrian>

</configuration>
-->

<connections version="1.16" xmlns:xsi="http://www.w3.org/2001/XMLSchema-instance" xsi:noNamespaceSchemaLocation="http://sumo.dlr.de/xsd/connections_file.xsd">
    <connection from="-1020882132" to="-137749037#0" fromLane="0" toLane="0"/>
    <connection from="-1020882132" to="137749037#1" fromLane="0" toLane="0"/>
    <connection from="-1020882132" to="1020882132" fromLane="0" toLane="0"/>

    <connection from="-1020882133" to="137749038#1" fromLane="0" toLane="0"/>
    <connection from="-1020882133" to="-137749038#0" fromLane="0" toLane="0"/>
    <connection from="-1020882133" to="1020882133" fromLane="0" toLane="0"/>

    <connection from="-1020882134" to="137748991#7" fromLane="0" toLane="0"/>
    <connection from="-1020882134" to="-137748991#6" fromLane="0" toLane="0"/>
    <connection from="-1020882134" to="1020882134" fromLane="0" toLane="0"/>

    <connection from="-1020882135" to="-428764176" fromLane="0" toLane="0" keepClear="0"/>

    <connection from="-1020882136" to="1020882137#1" fromLane="0" toLane="0"/>
    <connection from="-1020882136" to="-1020882137#0" fromLane="0" toLane="0"/>
    <connection from="-1020882136" to="1020882136" fromLane="0" toLane="0"/>

    <connection from="-1020882137#0" to="1039045484" fromLane="0" toLane="0"/>
    <connection from="-1020882137#0" to="-405027612#3" fromLane="0" toLane="0"/>
    <connection from="-1020882137#0" to="1020882137#0" fromLane="0" toLane="0"/>

    <connection from="-1020882137#1" to="-1020882137#0" fromLane="0" toLane="0"/>
    <connection from="-1020882137#1" to="1020882136" fromLane="0" toLane="0"/>
    <connection from="-1020882137#1" to="1020882137#1" fromLane="0" toLane="0"/>

    <connection from="-1021490568" to="137763835#4" fromLane="0" toLane="0"/>
    <connection from="-1021490568" to="-137763835#3" fromLane="0" toLane="0"/>
    <connection from="-1021490568" to="1021490568" fromLane="0" toLane="0"/>

    <connection from="-1021490570#0" to="1329074619" fromLane="0" toLane="0"/>
    <connection from="-1021490570#0" to="1021490570#0" fromLane="0" toLane="0"/>

    <connection from="-1021490570#1" to="-1021490570#0" fromLane="0" toLane="0"/>

    <connection from="-1021490570#2" to="-1021490570#1" fromLane="0" toLane="0"/>

    <connection from="-1021490575" to="-366539662#0" fromLane="0" toLane="0"/>
    <connection from="-1021490575" to="366539662#1" fromLane="0" toLane="0"/>
    <connection from="-1021490575" to="1021490575" fromLane="0" toLane="0"/>

    <connection from="-1021627546" to="-1021627547" fromLane="0" toLane="0"/>
    <connection from="-1021627546" to="1021627546" fromLane="0" toLane="0"/>

    <connection from="-1021627547" to="-1021627548#0" fromLane="0" toLane="0"/>
    <connection from="-1021627547" to="1334261576" fromLane="0" toLane="0"/>
    <connection from="-1021627547" to="1021627548#1" fromLane="0" toLane="0"/>

    <connection from="-1021627548#0" to="-1334256949" fromLane="0" toLane="0" keepClear="0"/>
    <connection from="-1021627548#0" to="1021627548#0" fromLane="0" toLane="0"/>

    <connection from="-1035808896#0" to="-319815186#2" fromLane="0" toLane="0"/>
    <connection from="-1035808896#0" to="319815186#3" fromLane="0" toLane="0"/>
    <connection from="-1035808896#0" to="1035808896#0" fromLane="0" toLane="0"/>

    <connection from="-1035808896#1" to="-1035808897" fromLane="0" toLane="0"/>
    <connection from="-1035808896#1" to="-1035808896#0" fromLane="0" toLane="0"/>
    <connection from="-1035808896#1" to="1035808896#1" fromLane="0" toLane="0"/>

    <connection from="-1035808896#2" to="-164649489#0" fromLane="0" toLane="0"/>
    <connection from="-1035808896#2" to="-1035808896#1" fromLane="0" toLane="0"/>
    <connection from="-1035808896#2" to="164649489#1" fromLane="0" toLane="0"/>
    <connection from="-1035808896#2" to="1035808896#2" fromLane="0" toLane="0"/>

    <connection from="-1035808897" to="-137749050#0" fromLane="0" toLane="0"/>
    <connection from="-1035808897" to="137749050#1" fromLane="0" toLane="0"/>
    <connection from="-1035808897" to="1035808897" fromLane="0" toLane="0"/>

    <connection from="-1035808898" to="-154997623#0" fromLane="0" toLane="0"/>
    <connection from="-1035808898" to="154997623#1" fromLane="0" toLane="0"/>
    <connection from="-1035808898" to="1035808898" fromLane="0" toLane="0"/>

    <connection from="-1039045484" to="-405027612#3" fromLane="0" toLane="0"/>
    <connection from="-1039045484" to="1020882137#0" fromLane="0" toLane="0"/>

    <connection from="-1039045485#0" to="-743533713#2" fromLane="0" toLane="0"/>

    <connection from="-1039045485#1" to="-1039045485#0" fromLane="0" toLane="0"/>

    <connection from="-1039045485#2" to="-1039045485#1" fromLane="0" toLane="0"/>
    <connection from="-1039045485#2" to="1333455662" fromLane="0" toLane="0"/>
    <connection from="-1039045485#2" to="1039045485#2" fromLane="0" toLane="0"/>

    <connection from="-1039045485#3" to="-1039045485#2" fromLane="0" toLane="0"/>
    <connection from="-1039045485#3" to="-149676714" fromLane="0" toLane="0"/>
    <connection from="-1039045485#3" to="1039045485#3" fromLane="0" toLane="0"/>

    <connection from="-1039045485#4" to="149676746" fromLane="0" toLane="0"/>
    <connection from="-1039045485#4" to="-1039045485#3" fromLane="0" toLane="0"/>
    <connection from="-1039045485#4" to="1039045485#4" fromLane="0" toLane="0"/>

    <connection from="-1039045485#5" to="-1039045485#4" fromLane="0" toLane="0"/>

    <connection from="-1039045485#6" to="-1039045485#5" fromLane="0" toLane="0"/>
    <connection from="-1039045485#6" to="149676822#0" fromLane="0" toLane="0"/>
    <connection from="-1039045485#6" to="1039045485#6" fromLane="0" toLane="0"/>

    <connection from="-1039045485#7" to="-1039045485#6" fromLane="0" toLane="0"/>
    <connection from="-1039045485#7" to="-149676721" fromLane="0" toLane="0"/>
    <connection from="-1039045485#7" to="1039045485#7" fromLane="0" toLane="0"/>

    <connection from="-1039045486" to="428764256" fromLane="0" toLane="0"/>
    <connection from="-1039045486" to="-1039045485#7" fromLane="0" toLane="0"/>

    <connection from="-1039045488" to="-235755432" fromLane="0" toLane="0"/>
    <connection from="-1039045488" to="1039045488" fromLane="0" toLane="0"/>

    <connection from="-1058126248" to="-342896427#7" fromLane="0" toLane="0"/>
    <connection from="-1058126248" to="342896427#8" fromLane="0" toLane="0"/>
    <connection from="-1058126248" to="1058126248" fromLane="0" toLane="0"/>

    <connection from="-1058126249" to="137843182#1" fromLane="0" toLane="0"/>
    <connection from="-1058126249" to="1058126249" fromLane="0" toLane="0"/>

    <connection from="-1058126264#0" to="1058126264#0" fromLane="0" toLane="0"/>

    <connection from="-1058126264#1" to="-1058126264#0" fromLane="0" toLane="0"/>

    <connection from="-1058126266" to="-713909704#0" fromLane="0" toLane="0"/>
    <connection from="-1058126266" to="713909704#1" fromLane="0" toLane="0"/>
    <connection from="-1058126266" to="1058126266" fromLane="0" toLane="0"/>

    <connection from="-1058126267#0" to="137893122#1" fromLane="0" toLane="0"/>
    <connection from="-1058126267#0" to="-137893122#0" fromLane="0" toLane="0"/>
    <connection from="-1058126267#0" to="1058126267#0" fromLane="0" toLane="0"/>

    <connection from="-1058126267#1" to="-1058126267#0" fromLane="0" toLane="0"/>

    <connection from="-1058126268#0" to="137749058#4" fromLane="0" toLane="0"/>
    <connection from="-1058126268#0" to="1058126268#0" fromLane="0" toLane="0"/>

    <connection from="-1058126268#1" to="-1058126268#0" fromLane="0" toLane="0"/>
    <connection from="-1058126268#1" to="1058126268#1" fromLane="0" toLane="0"/>

    <connection from="-1058126268#2" to="-1058126268#1" fromLane="0" toLane="0"/>
    <connection from="-1058126268#2" to="319815169#6" fromLane="0" toLane="1"/>
    <connection from="-1058126268#2" to="1058126268#2" fromLane="0" toLane="0"/>

    <connection from="-1077887059" to="1333495212#1" fromLane="0" toLane="0"/>
    <connection from="-1077887059" to="1337965557" fromLane="0" toLane="0"/>

    <connection from="-1090469409" to="1090469410" fromLane="0" toLane="0"/>
    <connection from="-1090469409" to="-164743936" fromLane="0" toLane="0"/>
    <connection from="-1090469409" to="-164743939" fromLane="0" toLane="0"/>
    <connection from="-1090469409" to="1090469409" fromLane="0" toLane="0"/>

    <connection from="-1098832456" to="-1337945932#0" fromLane="0" toLane="0"/>
    <connection from="-1098832456" to="1337945932#1" fromLane="0" toLane="0"/>

    <connection from="-1105974980#0" to="1105974981#2" fromLane="0" toLane="0"/>
    <connection from="-1105974980#0" to="-1105974981#1" fromLane="0" toLane="0"/>
    <connection from="-1105974980#0" to="1105974980#0" fromLane="0" toLane="0"/>

    <connection from="-1105974980#1" to="-1105974980#0" fromLane="0" toLane="0"/>
    <connection from="-1105974980#1" to="1105974980#1" fromLane="0" toLane="0"/>

    <connection from="-1105974981#0" to="1333503020#3" fromLane="0" toLane="0"/>
    <connection from="-1105974981#0" to="-1333503020#2" fromLane="0" toLane="0"/>
    <connection from="-1105974981#0" to="1105974981#0" fromLane="0" toLane="0"/>

    <connection from="-1105974981#1" to="-1105974981#0" fromLane="0" toLane="0"/>
    <connection from="-1105974981#1" to="1105974981#1" fromLane="0" toLane="0"/>

    <connection from="-1105974981#2" to="-1105974981#1" fromLane="0" toLane="0"/>
    <connection from="-1105974981#2" to="1105974980#0" fromLane="0" toLane="0"/>
    <connection from="-1105974981#2" to="1105974981#2" fromLane="0" toLane="0"/>

    <connection from="-1105974982" to="1333503021" fromLane="0" toLane="0"/>

    <connection from="-1106597741#0" to="-1331914468#0" fromLane="0" toLane="0"/>
    <connection from="-1106597741#0" to="1331914468#1" fromLane="0" toLane="0"/>
    <connection from="-1106597741#0" to="1106597741#0" fromLane="0" toLane="0"/>

    <connection from="-1106599423" to="-209584341" fromLane="0" toLane="0"/>
    <connection from="-1106599423" to="1106599423" fromLane="0" toLane="0"/>

    <connection from="-1158039827#0" to="-202652465#3" fromLane="0" toLane="0"/>
    <connection from="-1158039827#0" to="202652465#4" fromLane="0" toLane="0"/>
    <connection from="-1158039827#0" to="1158039827#0" fromLane="0" toLane="0"/>

    <connection from="-1158039827#1" to="1158039828#1" fromLane="0" toLane="0"/>
    <connection from="-1158039827#1" to="-1158039827#0" fromLane="0" toLane="0"/>
    <connection from="-1158039827#1" to="-1158039828#0" fromLane="0" toLane="0"/>
    <connection from="-1158039827#1" to="1158039827#1" fromLane="0" toLane="0"/>

    <connection from="-1158039828#0" to="1158039828#0" fromLane="0" toLane="0"/>

    <connection from="-1158039828#1" to="-1158039827#0" fromLane="0" toLane="0"/>
    <connection from="-1158039828#1" to="-1158039828#0" fromLane="0" toLane="0"/>
    <connection from="-1158039828#1" to="1158039827#1" fromLane="0" toLane="0"/>
    <connection from="-1158039828#1" to="1158039828#1" fromLane="0" toLane="0"/>

    <connection from="-1158039836" to="879174197#0" fromLane="0" toLane="0"/>
    <connection from="-1158039836" to="-149589481" fromLane="0" toLane="0"/>
    <connection from="-1158039836" to="1158039836" fromLane="0" toLane="0"/>

    <connection from="-1192015959" to="-137845925#0" fromLane="0" toLane="0"/>

    <connection from="-1218337438#0" to="1218337440#3" fromLane="0" toLane="0"/>
    <connection from="-1218337438#0" to="-1218337440#2" fromLane="0" toLane="0"/>
    <connection from="-1218337438#0" to="1218337438#0" fromLane="0" toLane="0"/>

    <connection from="-1218337438#1" to="1218337439#1" fromLane="0" toLane="0"/>
    <connection from="-1218337438#1" to="-1218337438#0" fromLane="0" toLane="0"/>
    <connection from="-1218337438#1" to="-1218337439#0" fromLane="0" toLane="0"/>
    <connection from="-1218337438#1" to="1218337438#1" fromLane="0" toLane="0"/>

    <connection from="-1218337439#0" to="1218337440#2" fromLane="0" toLane="0"/>
    <connection from="-1218337439#0" to="-1218337440#1" fromLane="0" toLane="0"/>
    <connection from="-1218337439#0" to="1218337439#0" fromLane="0" toLane="0"/>

    <connection from="-1218337439#1" to="-1218337438#0" fromLane="0" toLane="0"/>
    <connection from="-1218337439#1" to="-1218337439#0" fromLane="0" toLane="0"/>
    <connection from="-1218337439#1" to="1218337438#1" fromLane="0" toLane="0"/>
    <connection from="-1218337439#1" to="1218337439#1" fromLane="0" toLane="0"/>

    <connection from="-1218337439#2" to="-1218337441#2" fromLane="0" toLane="0"/>
    <connection from="-1218337439#2" to="-1218337439#1" fromLane="0" toLane="0"/>
    <connection from="-1218337439#2" to="1218337441#3" fromLane="0" toLane="0"/>
    <connection from="-1218337439#2" to="1218337439#2" fromLane="0" toLane="0"/>

    <connection from="-1218337440#0" to="1218337441#4" fromLane="0" toLane="0"/>
    <connection from="-1218337440#0" to="-1218337441#3" fromLane="0" toLane="0"/>
    <connection from="-1218337440#0" to="1218337440#0" fromLane="0" toLane="0"/>

    <connection from="-1218337440#1" to="-1218337440#0" fromLane="0" toLane="0"/>
    <connection from="-1218337440#1" to="-1218337438#1" fromLane="0" toLane="0"/>
    <connection from="-1218337440#1" to="1218337440#1" fromLane="0" toLane="0"/>

    <connection from="-1218337440#2" to="-1218337440#1" fromLane="0" toLane="0"/>
    <connection from="-1218337440#2" to="1218337439#0" fromLane="0" toLane="0"/>
    <connection from="-1218337440#2" to="1218337440#2" fromLane="0" toLane="0"/>

    <connection from="-1218337440#3" to="-1218337440#2" fromLane="0" toLane="0"/>
    <connection from="-1218337440#3" to="1218337438#0" fromLane="0" toLane="0"/>
    <connection from="-1218337440#3" to="1218337440#3" fromLane="0" toLane="0"/>

    <connection from="-1218337440#4" to="-1218337441#1" fromLane="0" toLane="0"/>
    <connection from="-1218337440#4" to="-1218337440#3" fromLane="0" toLane="0"/>
    <connection from="-1218337440#4" to="1218337441#2" fromLane="0" toLane="0"/>
    <connection from="-1218337440#4" to="1218337440#4" fromLane="0" toLane="0"/>

    <connection from="-1218337441#0" to="-1218337450#1" fromLane="0" toLane="0"/>
    <connection from="-1218337441#0" to="1218337450#2" fromLane="0" toLane="0"/>
    <connection from="-1218337441#0" to="1218337441#0" fromLane="0" toLane="0"/>

    <connection from="-1218337441#1" to="-1218337447#0" fromLane="0" toLane="0"/>
    <connection from="-1218337441#1" to="-1218337441#0" fromLane="0" toLane="0"/>
    <connection from="-1218337441#1" to="1218337447#1" fromLane="0" toLane="0"/>
    <connection from="-1218337441#1" to="1218337441#1" fromLane="0" toLane="0"/>

    <connection from="-1218337441#2" to="1218337440#4" fromLane="0" toLane="0"/>
    <connection from="-1218337441#2" to="-1218337441#1" fromLane="0" toLane="0"/>
    <connection from="-1218337441#2" to="-1218337440#3" fromLane="0" toLane="0"/>
    <connection from="-1218337441#2" to="1218337441#2" fromLane="0" toLane="0"/>

    <connection from="-1218337441#3" to="1218337439#2" fromLane="0" toLane="0"/>
    <connection from="-1218337441#3" to="-1218337441#2" fromLane="0" toLane="0"/>
    <connection from="-1218337441#3" to="-1218337439#1" fromLane="0" toLane="0"/>
    <connection from="-1218337441#3" to="1218337441#3" fromLane="0" toLane="0"/>

    <connection from="-1218337441#4" to="-1218337441#3" fromLane="0" toLane="0"/>
    <connection from="-1218337441#4" to="1218337440#0" fromLane="0" toLane="0"/>
    <connection from="-1218337441#4" to="1218337441#4" fromLane="0" toLane="0"/>

    <connection from="-1218337441#5" to="-1218337454#16" fromLane="0" toLane="0"/>
    <connection from="-1218337441#5" to="-1218337441#4" fromLane="0" toLane="0"/>
    <connection from="-1218337441#5" to="1218337454#17" fromLane="0" toLane="0"/>
    <connection from="-1218337441#5" to="1218337441#5" fromLane="0" toLane="0"/>

    <connection from="-1218337442" to="-1218337450#2" fromLane="0" toLane="0"/>
    <connection from="-1218337442" to="1218337450#3" fromLane="0" toLane="0"/>
    <connection from="-1218337442" to="1218337442" fromLane="0" toLane="0"/>

    <connection from="-1218337443#0" to="1218337454#6" fromLane="0" toLane="0"/>
    <connection from="-1218337443#0" to="-1218337454#5" fromLane="0" toLane="0"/>
    <connection from="-1218337443#0" to="1218337443#0" fromLane="0" toLane="0"/>

    <connection from="-1218337443#1" to="-1218337449#0" fromLane="0" toLane="0"/>
    <connection from="-1218337443#1" to="-1218337443#0" fromLane="0" toLane="0"/>
    <connection from="-1218337443#1" to="1218337449#1" fromLane="0" toLane="0"/>
    <connection from="-1218337443#1" to="1218337443#1" fromLane="0" toLane="0"/>

    <connection from="-1218337444#0" to="1218337454#5" fromLane="0" toLane="0"/>
    <connection from="-1218337444#0" to="-1218337454#4" fromLane="0" toLane="0"/>
    <connection from="-1218337444#0" to="1218337444#0" fromLane="0" toLane="0"/>

    <connection from="-1218337444#1" to="-1218337449#1" fromLane="0" toLane="0"/>
    <connection from="-1218337444#1" to="-1218337444#0" fromLane="0" toLane="0"/>
    <connection from="-1218337444#1" to="1218337449#2" fromLane="0" toLane="0"/>
    <connection from="-1218337444#1" to="1218337444#1" fromLane="0" toLane="0"/>

    <connection from="-1218337445#0" to="1218337447#5" fromLane="0" toLane="0"/>
    <connection from="-1218337445#0" to="-1218337447#4" fromLane="0" toLane="0"/>
    <connection from="-1218337445#0" to="1218337445#0" fromLane="0" toLane="0"/>

    <connection from="-1218337445#1" to="-1218337449#2" fromLane="0" toLane="0"/>
    <connection from="-1218337445#1" to="-1218337445#0" fromLane="0" toLane="0"/>
    <connection from="-1218337445#1" to="1218337449#3" fromLane="0" toLane="0"/>
    <connection from="-1218337445#1" to="1218337445#1" fromLane="0" toLane="0"/>

    <connection from="-1218337446#0" to="1218337447#4" fromLane="0" toLane="0"/>
    <connection from="-1218337446#0" to="-1218337447#3" fromLane="0" toLane="0"/>
    <connection from="-1218337446#0" to="1218337446#0" fromLane="0" toLane="0"/>

    <connection from="-1218337446#1" to="-1218337449#3" fromLane="0" toLane="0"/>
    <connection from="-1218337446#1" to="-1218337446#0" fromLane="0" toLane="0"/>
    <connection from="-1218337446#1" to="1218337449#4" fromLane="0" toLane="0"/>
    <connection from="-1218337446#1" to="1218337446#1" fromLane="0" toLane="0"/>

    <connection from="-1218337447#0" to="1218337454#14" fromLane="0" toLane="0"/>
    <connection from="-1218337447#0" to="-1218337454#13" fromLane="0" toLane="0"/>
    <connection from="-1218337447#0" to="1218337447#0" fromLane="0" toLane="0"/>

    <connection from="-1218337447#1" to="1218337441#1" fromLane="0" toLane="0"/>
    <connection from="-1218337447#1" to="-1218337447#0" fromLane="0" toLane="0"/>
    <connection from="-1218337447#1" to="-1218337441#0" fromLane="0" toLane="0"/>
    <connection from="-1218337447#1" to="1218337447#1" fromLane="0" toLane="0"/>

    <connection from="-1218337447#2" to="-1218337447#1" fromLane="0" toLane="0"/>
    <connection from="-1218337447#2" to="-1218337442" fromLane="0" toLane="0"/>
    <connection from="-1218337447#2" to="1218337447#2" fromLane="0" toLane="0"/>

    <connection from="-1218337447#3" to="-1218337451#1" fromLane="0" toLane="0"/>
    <connection from="-1218337447#3" to="-1218337447#2" fromLane="0" toLane="0"/>
    <connection from="-1218337447#3" to="1218337451#2" fromLane="0" toLane="0"/>
    <connection from="-1218337447#3" to="1218337447#3" fromLane="0" toLane="0"/>

    <connection from="-1218337447#4" to="-1218337447#3" fromLane="0" toLane="0"/>
    <connection from="-1218337447#4" to="1218337446#0" fromLane="0" toLane="0"/>
    <connection from="-1218337447#4" to="1218337447#4" fromLane="0" toLane="0"/>

    <connection from="-1218337447#5" to="-1218337447#4" fromLane="0" toLane="0"/>
    <connection from="-1218337447#5" to="1218337445#0" fromLane="0" toLane="0"/>
    <connection from="-1218337447#5" to="1218337447#5" fromLane="0" toLane="0"/>

    <connection from="-1218337448" to="-1218337450#0" fromLane="0" toLane="0"/>
    <connection from="-1218337448" to="1218337450#1" fromLane="0" toLane="0"/>
    <connection from="-1218337448" to="1218337448" fromLane="0" toLane="0"/>

    <connection from="-1218337449#0" to="1218337454#7" fromLane="0" toLane="0"/>
    <connection from="-1218337449#0" to="-1218337454#6" fromLane="0" toLane="0"/>
    <connection from="-1218337449#0" to="1218337449#0" fromLane="0" toLane="0"/>

    <connection from="-1218337449#1" to="1218337443#1" fromLane="0" toLane="0"/>
    <connection from="-1218337449#1" to="-1218337449#0" fromLane="0" toLane="0"/>
    <connection from="-1218337449#1" to="-1218337443#0" fromLane="0" toLane="0"/>
    <connection from="-1218337449#1" to="1218337449#1" fromLane="0" toLane="0"/>

    <connection from="-1218337449#2" to="1218337444#1" fromLane="0" toLane="0"/>
    <connection from="-1218337449#2" to="-1218337449#1" fromLane="0" toLane="0"/>
    <connection from="-1218337449#2" to="-1218337444#0" fromLane="0" toLane="0"/>
    <connection from="-1218337449#2" to="1218337449#2" fromLane="0" toLane="0"/>

    <connection from="-1218337449#3" to="1218337445#1" fromLane="0" toLane="0"/>
    <connection from="-1218337449#3" to="-1218337449#2" fromLane="0" toLane="0"/>
    <connection from="-1218337449#3" to="-1218337445#0" fromLane="0" toLane="0"/>
    <connection from="-1218337449#3" to="1218337449#3" fromLane="0" toLane="0"/>

    <connection from="-1218337449#4" to="1218337446#1" fromLane="0" toLane="0"/>
    <connection from="-1218337449#4" to="-1218337449#3" fromLane="0" toLane="0"/>
    <connection from="-1218337449#4" to="-1218337446#0" fromLane="0" toLane="0"/>
    <connection from="-1218337449#4" to="1218337449#4" fromLane="0" toLane="0"/>

    <connection from="-1218337449#5" to="1218337451#3" fromLane="0" toLane="0"/>
    <connection from="-1218337449#5" to="-1218337449#4" fromLane="0" toLane="0"/>
    <connection from="-1218337449#5" to="-1218337451#2" fromLane="0" toLane="0"/>
    <connection from="-1218337449#5" to="1218337449#5" fromLane="0" toLane="0"/>

    <connection from="-1218337450#0" to="-1218337449#5" fromLane="0" toLane="0"/>
    <connection from="-1218337450#0" to="-1218337450#3" fromLane="0" toLane="0"/>
    <connection from="-1218337450#0" to="1218337450#0" fromLane="0" toLane="0"/>

    <connection from="-1218337450#1" to="1218337448" fromLane="0" toLane="0"/>
    <connection from="-1218337450#1" to="-1218337450#0" fromLane="0" toLane="0"/>
    <connection from="-1218337450#1" to="1218337450#1" fromLane="0" toLane="0"/>

    <connection from="-1218337450#2" to="1218337441#0" fromLane="0" toLane="0"/>
    <connection from="-1218337450#2" to="-1218337450#1" fromLane="0" toLane="0"/>
    <connection from="-1218337450#2" to="1218337450#2" fromLane="0" toLane="0"/>

    <connection from="-1218337450#3" to="1218337442" fromLane="0" toLane="0"/>
    <connection from="-1218337450#3" to="-1218337450#2" fromLane="0" toLane="0"/>
    <connection from="-1218337450#3" to="1218337450#3" fromLane="0" toLane="0"/>

    <connection from="-1218337451#0" to="-1218337452#0" fromLane="0" toLane="0"/>
    <connection from="-1218337451#0" to="1218337452#1" fromLane="0" toLane="0"/>
    <connection from="-1218337451#0" to="1218337451#0" fromLane="0" toLane="0"/>

    <connection from="-1218337451#1" to="1218337452#2" fromLane="0" toLane="0"/>
    <connection from="-1218337451#1" to="-1218337451#0" fromLane="0" toLane="0"/>
    <connection from="-1218337451#1" to="-1218337452#1" fromLane="0" toLane="0"/>
    <connection from="-1218337451#1" to="1218337451#1" fromLane="0" toLane="0"/>

    <connection from="-1218337451#2" to="1218337447#3" fromLane="0" toLane="0"/>
    <connection from="-1218337451#2" to="-1218337451#1" fromLane="0" toLane="0"/>
    <connection from="-1218337451#2" to="-1218337447#2" fromLane="0" toLane="0"/>
    <connection from="-1218337451#2" to="1218337451#2" fromLane="0" toLane="0"/>

    <connection from="-1218337451#3" to="-1218337449#4" fromLane="0" toLane="0"/>
    <connection from="-1218337451#3" to="-1218337451#2" fromLane="0" toLane="0"/>
    <connection from="-1218337451#3" to="1218337449#5" fromLane="0" toLane="0"/>
    <connection from="-1218337451#3" to="1218337451#3" fromLane="0" toLane="0"/>

    <connection from="-1218337452#0" to="1218337454#2" fromLane="0" toLane="0"/>
    <connection from="-1218337452#0" to="-1218337454#1" fromLane="0" toLane="0"/>
    <connection from="-1218337452#0" to="1218337452#0" fromLane="0" toLane="0"/>

    <connection from="-1218337452#1" to="1218337451#0" fromLane="0" toLane="0"/>
    <connection from="-1218337452#1" to="-1218337452#0" fromLane="0" toLane="0"/>
    <connection from="-1218337452#1" to="1218337452#1" fromLane="0" toLane="0"/>

    <connection from="-1218337452#2" to="-1218337451#0" fromLane="0" toLane="0"/>
    <connection from="-1218337452#2" to="-1218337452#1" fromLane="0" toLane="0"/>
    <connection from="-1218337452#2" to="1218337451#1" fromLane="0" toLane="0"/>
    <connection from="-1218337452#2" to="1218337452#2" fromLane="0" toLane="0"/>

    <connection from="-1218337453" to="1218337453" fromLane="0" toLane="0"/>

    <connection from="-1218337454#0" to="1218337454#0" fromLane="0" toLane="0"/>

    <connection from="-1218337454#1" to="-1218337453" fromLane="0" toLane="0"/>
    <connection from="-1218337454#1" to="-1218337454#0" fromLane="0" toLane="0"/>
    <connection from="-1218337454#1" to="1218337454#1" fromLane="0" toLane="0"/>

    <connection from="-1218337454#10" to="-1218337454#9" fromLane="0" toLane="0"/>
    <connection from="-1218337454#10" to="-1218337445#1" fromLane="0" toLane="0"/>
    <connection from="-1218337454#10" to="1218337454#10" fromLane="0" toLane="0"/>

    <connection from="-1218337454#11" to="-1218337454#10" fromLane="0" toLane="0"/>
    <connection from="-1218337454#11" to="-1218337446#1" fromLane="0" toLane="0"/>
    <connection from="-1218337454#11" to="1218337454#11" fromLane="0" toLane="0"/>

    <connection from="-1218337454#12" to="-1218337454#11" fromLane="0" toLane="0"/>
    <connection from="-1218337454#12" to="-1218337451#3" fromLane="0" toLane="0"/>
    <connection from="-1218337454#12" to="1218337454#12" fromLane="0" toLane="0"/>

    <connection from="-1218337454#13" to="-1218337454#12" fromLane="0" toLane="0"/>
    <connection from="-1218337454#13" to="-1218337448" fromLane="0" toLane="0"/>
    <connection from="-1218337454#13" to="1218337454#13" fromLane="0" toLane="0"/>

    <connection from="-1218337454#14" to="-1218337454#13" fromLane="0" toLane="0"/>
    <connection from="-1218337454#14" to="1218337447#0" fromLane="0" toLane="0"/>
    <connection from="-1218337454#14" to="1218337454#14" fromLane="0" toLane="0"/>

    <connection from="-1218337454#15" to="-1218337454#14" fromLane="0" toLane="0"/>
    <connection from="-1218337454#15" to="-1218337440#4" fromLane="0" toLane="0"/>
    <connection from="-1218337454#15" to="1218337454#15" fromLane="0" toLane="0"/>

    <connection from="-1218337454#16" to="-1218337454#15" fromLane="0" toLane="0"/>
    <connection from="-1218337454#16" to="-1218337439#2" fromLane="0" toLane="0"/>
    <connection from="-1218337454#16" to="1218337454#16" fromLane="0" toLane="0"/>

    <connection from="-1218337454#17" to="1218337441#5" fromLane="0" toLane="0"/>
    <connection from="-1218337454#17" to="-1218337454#16" fromLane="0" toLane="0"/>
    <connection from="-1218337454#17" to="-1218337441#4" fromLane="0" toLane="0"/>
    <connection from="-1218337454#17" to="1218337454#17" fromLane="0" toLane="0"/>

    <connection from="-1218337454#2" to="-1218337454#1" fromLane="0" toLane="0"/>
    <connection from="-1218337454#2" to="1218337452#0" fromLane="0" toLane="0"/>
    <connection from="-1218337454#2" to="1218337454#2" fromLane="0" toLane="0"/>

    <connection from="-1218337454#3" to="-1218337454#2" fromLane="0" toLane="0"/>
    <connection from="-1218337454#3" to="-1218337452#2" fromLane="0" toLane="0"/>
    <connection from="-1218337454#3" to="1218337454#3" fromLane="0" toLane="0"/>

    <connection from="-1218337454#4" to="-1218337454#3" fromLane="0" toLane="0"/>
    <connection from="-1218337454#4" to="-1218337447#5" fromLane="0" toLane="0"/>
    <connection from="-1218337454#4" to="1218337454#4" fromLane="0" toLane="0"/>

    <connection from="-1218337454#5" to="-1218337454#4" fromLane="0" toLane="0"/>
    <connection from="-1218337454#5" to="1218337444#0" fromLane="0" toLane="0"/>
    <connection from="-1218337454#5" to="1218337454#5" fromLane="0" toLane="0"/>

    <connection from="-1218337454#6" to="-1218337454#5" fromLane="0" toLane="0"/>
    <connection from="-1218337454#6" to="1218337443#0" fromLane="0" toLane="0"/>