<?xml version="1.0" encoding="UTF-8"?>

<!-- generated on 2025-04-04 16:23:56 by Eclipse SUMO netconvert Version 1.19.0
<configuration xmlns:xsi="http://www.w3.org/2001/XMLSchema-instance" xsi:noNamespaceSchemaLocation="http://sumo.dlr.de/xsd/netconvertConfiguration.xsd">

    <input>
        <sumo-net-file value="la_ferte/la_ferte.net.xml"/>
    </input>

    <output>
        <plain-output-prefix value="la_ferte/la_ferte"/>
    </output>

    <processing>
        <geometry.min-radius.fix.railways value="false"/>
        <geometry.max-grade.fix value="false"/>
        <offset.disable-normalization value="true"/>
        <lefthand value="0"/>
    </processing>

    <tls_building>
        <tls.ignore-internal-junction-jam value="1"/>
    </tls_building>

    <junctions>
        <no-turnarounds value="true"/>
        <junctions.corner-detail value="5"/>
        <junctions.limit-turn-speed value="5.50"/>
        <rectangular-lane-cut value="0"/>
    </junctions>

    <pedestrian>
        <walkingareas value="0"/>
    </pedestrian>

</configuration>
-->

<edges version="1.16" xmlns:xsi="http://www.w3.org/2001/XMLSchema-instance" xsi:noNamespaceSchemaLocation="http://sumo.dlr.de/xsd/edges_file.xsd">
    <location netOffset="-505345.47,-5419462.57" convBoundary="0.00,0.00,7469.64,6489.20" origBoundary="3.006073,48.915627,3.223124,48.986425" projParameter="+proj=utm +zone=31 +ellps=WGS84 +datum=WGS84 +units=m +no_defs"/>

    <edge id="-1020882133" from="9415780730" to="1510697102" priority="3" type="highway.residential" numLanes="1" speed="13.89" disallow="tram rail_urban rail rail_electric rail_fast ship"/>
    <edge id="-1020882135" from="1626255528" to="4278576494" priority="1" type="highway.track" numLanes="1" speed="5.56" shape="5624.79,3718.24 5648.46,3685.64 5649.64,3679.76 5611.99,3648.36" allow="pedestrian motorcycle moped bicycle"/>
    <edge id="-1020882136" from="9415780735" to="9415780736" priority="1" type="highway.service" numLanes="1" speed="5.56" allow="pedestrian delivery bicycle"/>
    <edge id="-1020882137#0" from="9415780736" to="1626255350" priority="1" type="highway.service" numLanes="1" speed="5.56" allow="pedestrian delivery bicycle"/>
    <edge id="-1020882137#1" from="4864029175" to="9415780736" priority="1" type="highway.service" numLanes="1" speed="5.56" allow="pedestrian delivery bicycle"/>
    <edge id="-1021490568" from="9421209226" to="9421209227" priority="1" type="highway.service" numLanes="1" speed="5.56" allow="pedestrian delivery bicycle"/>
    <edge id="-1021490570#1" from="cluster_12296588216_4741239092" to="cluster_12296537098_12296588210_12296588251_1511608671_#2more" priority="3" type="highway.residential" numLanes="1" speed="13.89" shape="4905.75,1712.68 4907.26,1710.54 4921.25,1684.73 4936.81,1661.13 4939.74,1655.30 4941.79,1649.46 4943.14,1643.68" disallow="tram rail_urban rail rail_electric rail_fast ship"/>
    <edge id="-1021490575" from="2914274939" to="cluster_1511667229_3705318661_3705318718" priority="1" type="highway.track" numLanes="1" speed="5.56" shape="5218.38,780.44 5219.13,811.27 5206.10,845.32 5200.52,888.40 5184.08,949.90" allow="pedestrian motorcycle moped bicycle"/>
    <edge id="-1021627546" from="2848074515" to="9422395813" priority="1" type="highway.track" numLanes="1" speed="5.56" shape="3648.66,1835.14 3597.68,1835.27 3583.10,1833.69" allow="pedestrian motorcycle moped bicycle"/>
    <edge id="-1021627547" from="9422395813" to="12344024760" priority="1" type="highway.track" numLanes="1" speed="5.56" shape="3583.10,1833.69 3555.83,1829.60 3553.26,1826.65" allow="pedestrian motorcycle moped bicycle"/>
    <edge id="-1021627548#0" from="12344024760" to="9422406231" priority="1" type="highway.track" numLanes="1" speed="5.56" shape="3553.26,1826.65 3539.95,1827.02 3533.43,1826.99 3468.39,1836.87 3397.40,1849.64 3355.14,1862.22 3295.50,1891.39 3221.90,1943.88 3099.67,2031.30 3036.56,2078.78 3004.30,2113.98 2964.17,2151.92 2887.20,2213.58 2841.68,2247.58 2791.71,2279.49 2756.99,2294.17 2683.47,2314.42 2604.03,2332.69 2514.04,2347.29" allow="pedestrian motorcycle moped bicycle"/>
    <edge id="-1035808896#0" from="9543369850" to="cluster_6449757812_9543369849" priority="1" type="highway.track" numLanes="1" speed="5.56" shape="3336.78,3500.36 3408.68,3593.35" allow="pedestrian motorcycle moped bicycle"/>
    <edge id="-1035808896#1" from="9543369848" to="9543369850" priority="1" type="highway.track" numLanes="1" speed="5.56" allow="pedestrian motorcycle moped bicycle"/>
    <edge id="-1035808896#2" from="3835898525" to="9543369848" priority="1" type="highway.track" numLanes="1" speed="5.56" shape="2999.83,3093.31 3042.02,3146.33 3065.17,3162.80 3064.94,3180.62 3070.81,3195.51 3083.17,3201.01 3099.43,3221.20 3093.26,3279.92 3078.91,3293.61 3078.69,3305.16 3088.70,3312.03 3145.81,3326.01 3165.89,3332.17" allow="pedestrian motorcycle moped bicycle"/>
    <edge id="-1035808897" from="9543369850" to="9543369855" priority="1" type="highway.track" numLanes="1" speed="5.56" shape="3336.78,3500.36 3449.15,3400.20 3476.30,3366.08 3515.94,3320.91 3525.88,3304.77 3535.86,3283.55" allow="pedestrian motorcycle moped bicycle"/>
    <edge id="-1035808898" from="3835898475" to="9543369859" priority="1" type="highway.track" numLanes="1" speed="5.56" shape="2935.73,2591.52 2874.07,2593.63 2850.11,2598.69 2804.82,2613.31 2787.68,2616.74" allow="pedestrian motorcycle moped bicycle"/>
    <edge id="-1039045484" from="1626255326" to="1626255350" priority="3" type="highway.residential" numLanes="1" speed="8.33" shape="5808.49,3533.92 5779.36,3544.45 5756.36,3548.76 5724.49,3550.00 5661.07,3540.59 5636.19,3536.33 5619.59,3539.93" disallow="tram rail_urban rail rail_electric rail_fast ship"/>
    <edge id="-1039045485#0" from="cluster_1626255070_1626255111" to="6959264693" priority="11" type="highway.secondary" numLanes="1" speed="13.89" shape="5190.10,3459.25 5180.74,3445.00" disallow="tram rail_urban rail rail_electric rail_fast ship">
        <param key="ref" value="D 402"/>
    </edge>
    <edge id="-1039045485#2" from="1626255353" to="cluster_1626255070_1626255111" priority="11" type="highway.secondary" numLanes="1" speed="13.89" shape="5232.29,3542.45 5228.66,3536.33 5193.97,3467.07" disallow="tram rail_urban rail rail_electric rail_fast ship">
        <param key="ref" value="D 402"/>
    </edge>
    <edge id="-1039045485#3" from="1626255390" to="1626255353" priority="11" type="highway.secondary" numLanes="1" speed="13.89" shape="5248.05,3565.00 5241.63,3558.16 5232.29,3542.45" disallow="tram rail_urban rail rail_electric rail_fast ship">
        <param key="ref" value="D 402"/>
    </edge>
    <edge id="-1039045485#4" from="cluster_1626255415_1626255417" to="1626255390" priority="11" type="highway.secondary" numLanes="1" speed="13.89" shape="5267.27,3582.20 5248.05,3565.00" disallow="tram rail_urban rail rail_electric rail_fast ship">
        <param key="ref" value="D 402"/>
    </edge>
    <edge id="-1039045485#6" from="1626255459" to="cluster_1626255415_1626255417" priority="11" type="highway.secondary" numLanes="1" speed="13.89" shape="5335.36,3650.17 5269.76,3584.10" disallow="tram rail_urban rail rail_electric rail_fast ship">
        <param key="ref" value="D 402"/>
    </edge>
    <edge id="-1039045485#7" from="cluster_1626255745_4278574244" to="1626255459" priority="11" type="highway.secondary" numLanes="1" speed="13.89" shape="5447.57,3737.19 5351.92,3666.97 5335.36,3650.17" disallow="tram rail_urban rail rail_electric rail_fast ship">
        <param key="ref" value="D 402"/>
    </edge>
    <edge id="-1039045488" from="2438130912" to="2438130910" priority="1" type="highway.path" numLanes="1" speed="5.56" shape="5099.95,3403.95 5084.17,3401.19 4994.11,3462.20" width="2.00" allow="pedestrian bicycle"/>
    <edge id="-1058126248" from="9722720921" to="9722720923" priority="1" type="highway.service" numLanes="1" speed="5.56" shape="5827.21,1320.75 5826.05,1309.79 5825.89,1286.37" allow="pedestrian delivery bicycle"/>
    <edge id="-1058126249" from="9722720924" to="1511608240" priority="1" type="highway.service" numLanes="1" speed="5.56" shape="4919.32,1183.67 4924.71,1159.89 4931.83,1145.84" allow="pedestrian delivery bicycle"/>
    <edge id="-1058126264#0" from="cluster_12318776147_12318776149_9722720998" to="12318776146" priority="3" type="highway.residential" numLanes="1" speed="13.89" shape="3073.25,1943.01 3071.41,1951.05 3062.33,1955.74" disallow="tram rail_urban rail rail_electric rail_fast ship"/>
    <edge id="-1058126266" from="9722721001" to="1510768787" priority="1" type="highway.service" numLanes="1" speed="5.56" shape="2635.43,2214.39 2563.44,2223.49 2554.99,2223.87 2546.25,2222.59 2539.88,2219.55 2528.59,2213.65 2508.38,2200.99 2500.01,2193.07" allow="pedestrian delivery bicycle"/>
    <edge id="-1058126267#0" from="12323465551" to="1512039670" priority="3" type="highway.residential" numLanes="1" speed="13.89" disallow="tram rail_urban rail rail_electric rail_fast ship"/>
    <edge id="-1058126267#1" from="9722721008" to="12323465551" priority="3" type="highway.residential" numLanes="1" speed="13.89" disallow="tram rail_urban rail rail_electric rail_fast ship"/>
    <edge id="-1058126268#0" from="cluster_12336796838_12343286744_9722721009" to="9722721016" priority="1" type="highway.service" numLanes="1" speed="5.56" shape="4483.47,4012.64 4505.48,3993.29 4513.15,3988.36 4515.80,3986.45 4517.62,3984.11 4517.82,3980.68 4508.97,3960.36 4504.90,3957.75" allow="pedestrian delivery bicycle"/>
    <edge id="-1077887059" from="9882557996" to="9882557999" priority="1" type="highway.service" numLanes="1" speed="5.56" shape="3892.23,1732.74 3885.33,1747.32 3908.49,1759.21 3912.35,1757.03 3920.11,1752.85" allow="pedestrian delivery bicycle"/>
    <edge id="-1098832456" from="cluster_6200416222_6200416228" to="cluster_10060997336_12294203710_12294203759" priority="1" type="highway.service" numLanes="1" speed="5.56" shape="4098.15,1114.60 4092.36,1109.03 4090.50,1107.18" allow="pedestrian delivery bicycle"/>
    <edge id="-1105974980#0" from="12317872034" to="10120302870" priority="1" type="highway.service" numLanes="1" speed="5.56" allow="pedestrian delivery bicycle"/>
    <edge id="-1105974980#1" from="10120302869" to="12317872034" priority="1" type="highway.service" numLanes="1" speed="5.56" allow="pedestrian delivery bicycle"/>
    <edge id="-1105974981#0" from="10292946636" to="10120302873" priority="1" type="highway.service" numLanes="1" speed="5.56" shape="5018.58,3030.20 5016.50,3026.99 5077.88,2990.16" allow="pedestrian delivery bicycle"/>
    <edge id="-1105974981#1" from="10120302870" to="10292946636" priority="1" type="highway.service" numLanes="1" speed="5.56" allow="pedestrian delivery bicycle"/>
    <edge id="-1105974981#2" from="10120302871" to="10120302870" priority="1" type="highway.service" numLanes="1" speed="5.56" allow="pedestrian delivery bicycle"/>
    <edge id="-1158039827#0" from="10769703145" to="10769703141" priority="1" type="highway.path" numLanes="1" speed="5.56" shape="2598.10,695.94 2563.68,686.26 2459.01,656.81" width="2.00" allow="pedestrian bicycle"/>
    <edge id="-1158039827#1" from="10769703143" to="10769703145" priority="1" type="highway.path" numLanes="1" speed="5.56" shape="2902.68,813.62 2828.08,760.67 2598.10,695.94" width="2.00" allow="pedestrian bicycle"/>
    <edge id="-1158039828#0" from="10769703145" to="10769703144" priority="1" type="highway.path" numLanes="1" speed="5.56" shape="2598.10,695.94 2491.55,515.80 2466.54,473.51" width="2.00" allow="pedestrian bicycle"/>
    <edge id="-1158039828#1" from="2126183471" to="10769703145" priority="1" type="highway.path" numLanes="1" speed="5.56" width="2.00" allow="pedestrian bicycle"/>
    <edge id="-1158039836" from="2126183479" to="1625460822" priority="1" type="highway.path" numLanes="1" speed="5.56" shape="2816.57,956.11 2894.01,858.05 2919.33,822.09 2920.38,807.72" width="2.00" allow="pedestrian bicycle"/>
    <edge id="-1192015959" from="3262830488" to="12304071445" priority="3" type="highway.residential" numLanes="1" speed="13.89" shape="5422.85,1294.17 5458.17,1300.29 5481.23,1304.44 5498.04,1305.94 5527.70,1304.89 5535.65,1303.13 5539.33,1302.32" disallow="tram rail_urban rail rail_electric rail_fast ship"/>
    <edge id="-1218337438#0" from="11289260135" to="11289260137" priority="1" type="highway.service" numLanes="1" speed="5.56" allow="pedestrian delivery bicycle"/>
    <edge id="-1218337438#1" from="11289260136" to="11289260135" priority="1" type="highway.service" numLanes="1" speed="5.56" allow="pedestrian delivery bicycle"/>
    <edge id="-1218337439#0" from="11289260135" to="11289260139" priority="1" type="highway.service" numLanes="1" speed="5.56" allow="pedestrian delivery bicycle"/>
    <edge id="-1218337439#1" from="11289260138" to="11289260135" priority="1" type="highway.service" numLanes="1" speed="5.56" allow="pedestrian delivery bicycle"/>
    <edge id="-1218337439#2" from="11289280584" to="11289260138" priority="1" type="highway.service" numLanes="1" speed="5.56" allow="pedestrian delivery bicycle"/>
    <edge id="-1218337440#0" from="11289260136" to="11289260145" priority="1" type="highway.service" numLanes="1" speed="5.56" allow="pedestrian delivery bicycle"/>
    <edge id="-1218337440#1" from="11289260139" to="11289260136" priority="1" type="highway.service" numLanes="1" speed="5.56" shape="4287.16,2953.12 4272.35,2937.35 4285.12,2925.87" allow="pedestrian delivery bicycle"/>
    <edge id="-1218337440#2" from="11289260137" to="11289260139" priority="1" type="highway.service" numLanes="1" speed="5.56" shape="4314.13,2958.02 4301.45,2968.34 4287.16,2953.12" allow="pedestrian delivery bicycle"/>
    <edge id="-1218337440#3" from="11289260140" to="11289260137" priority="1" type="highway.service" numLanes="1" speed="5.56" allow="pedestrian delivery bicycle"/>
    <edge id="-1218337440#4" from="11289280585" to="11289260140" priority="1" type="highway.service" numLanes="1" speed="5.56" allow="pedestrian delivery bicycle"/>
    <edge id="-1218337441#0" from="11289260134" to="cluster_11289260162_11289260163_11289260164_11289260165" priority="1" type="highway.service" numLanes="1" speed="5.56" shape="4360.83,2935.46 4366.11,2941.82" allow="pedestrian delivery bicycle"/>
    <edge id="-1218337441#1" from="11289260140" to="11289260134" priority="1" type="highway.service" numLanes="1" speed="5.56" allow="pedestrian delivery bicycle"/>
    <edge id="-1218337441#2" from="11289260138" to="11289260140" priority="1" type="highway.service" numLanes="1" speed="5.56" allow="pedestrian delivery bicycle"/>
    <edge id="-1218337441#3" from="11289260145" to="11289260138" priority="1" type="highway.service" numLanes="1" speed="5.56" allow="pedestrian delivery bicycle"/>
    <edge id="-1218337441#4" from="11289260144" to="11289260145" priority="1" type="highway.service" numLanes="1" speed="5.56" allow="pedestrian delivery bicycle"/>
    <edge id="-1218337441#5" from="11289260143" to="11289260144" priority="1" type="highway.service" numLanes="1" speed="5.56" allow="pedestrian delivery bicycle"/>
    <edge id="-1218337442" from="11289260146" to="cluster_11289260162_11289260163_11289260164_11289260165" priority="1" type="highway.service" numLanes="1" speed="5.56" shape="4341.54,2970.03 4365.70,2950.24" allow="pedestrian delivery bicycle"/>
    <edge id="-1218337443#0" from="11289260147" to="11289260149" priority="1" type="highway.service" numLanes="1" speed="5.56" allow="pedestrian delivery bicycle"/>
    <edge id="-1218337443#1" from="11289260148" to="11289260147" priority="1" type="highway.service" numLanes="1" speed="5.56" allow="pedestrian delivery bicycle"/>
    <edge id="-1218337444#0" from="11289260150" to="11289260152" priority="1" type="highway.service" numLanes="1" speed="5.56" allow="pedestrian delivery bicycle"/>
    <edge id="-1218337444#1" from="11289260151" to="11289260150" priority="1" type="highway.service" numLanes="1" speed="5.56" allow="pedestrian delivery bicycle"/>
    <edge id="-1218337445#0" from="11289260153" to="cluster_11289260154_11289280569_11289280579" priority="1" type="highway.service" numLanes="1" speed="5.56" shape="4398.08,2982.98 4369.00,3005.33" allow="pedestrian delivery bicycle"/>
    <edge id="-1218337445#1" from="11289280587" to="11289260153" priority="1" type="highway.service" numLanes="1" speed="5.56" allow="pedestrian delivery bicycle"/>
    <edge id="-1218337446#0" from="11289260155" to="11289260157" priority="1" type="highway.service" numLanes="1" speed="5.56" allow="pedestrian delivery bicycle"/>
    <edge id="-1218337446#1" from="11289260156" to="11289260155" priority="1" type="highway.service" numLanes="1" speed="5.56" allow="pedestrian delivery bicycle"/>
    <edge id="-1218337447#0" from="11289260134" to="11289260160" priority="1" type="highway.service" numLanes="1" speed="5.56" allow="pedestrian delivery bicycle"/>
    <edge id="-1218337447#1" from="11289260146" to="11289260134" priority="1" type="highway.service" numLanes="1" speed="5.56" shape="4341.54,2970.03 4332.50,2958.41 4360.83,2935.46" allow="pedestrian delivery bicycle"/>
    <edge id="-1218337447#2" from="cluster_11289260158_11289260167" to="11289260146" priority="1" type="highway.service" numLanes="1" speed="5.56" shape="4350.25,2981.22 4341.54,2970.03" allow="pedestrian delivery bicycle"/>
    <edge id="-1218337447#3" from="11289260157" to="cluster_11289260158_11289260167" priority="1" type="highway.service" numLanes="1" speed="5.56" shape="4356.57,2989.34 4350.25,2981.22" allow="pedestrian delivery bicycle"/>
    <edge id="-1218337447#4" from="cluster_11289260154_11289280569_11289280579" to="11289260157" priority="1" type="highway.service" numLanes="1" speed="5.56" shape="4369.00,3005.33 4356.57,2989.34" allow="pedestrian delivery bicycle"/>
    <edge id="-1218337448" from="11289260161" to="cluster_11289260162_11289260163_11289260164_11289260165" priority="1" type="highway.service" numLanes="1" speed="5.56" shape="4410.56,2915.57 4374.84,2943.51" allow="pedestrian delivery bicycle"/>
    <edge id="-1218337449#0" from="11289260147" to="11289260166" priority="1" type="highway.service" numLanes="1" speed="5.56" allow="pedestrian delivery bicycle"/>
    <edge id="-1218337449#1" from="11289260150" to="11289260147" priority="1" type="highway.service" numLanes="1" speed="5.56" allow="pedestrian delivery bicycle"/>
    <edge id="-1218337449#2" from="11289260153" to="11289260150" priority="1" type="highway.service" numLanes="1" speed="5.56" allow="pedestrian delivery bicycle"/>
    <edge id="-1218337449#3" from="11289260155" to="11289260153" priority="1" type="highway.service" numLanes="1" speed="5.56" allow="pedestrian delivery bicycle"/>
    <edge id="-1218337449#4" from="11289260133" to="11289260155" priority="1" type="highway.service" numLanes="1" speed="5.56" allow="pedestrian delivery bicycle"/>
    <edge id="-1218337449#5" from="cluster_11289260162_11289260163_11289260164_11289260165" to="11289260133" priority="1" type="highway.service" numLanes="1" speed="5.56" shape="4373.98,2951.67 4379.40,2958.89" allow="pedestrian delivery bicycle"/>
    <edge id="-1218337451#0" from="cluster_11289260158_11289260167" to="11289260168" priority="1" type="highway.service" numLanes="1" speed="5.56" shape="4343.90,2986.09 4313.15,3011.02" allow="pedestrian delivery bicycle"/>
    <edge id="-1218337451#2" from="11289260133" to="cluster_11289260158_11289260167" priority="1" type="highway.service" numLanes="1" speed="5.56" shape="4379.40,2958.89 4350.25,2981.22" allow="pedestrian delivery bicycle"/>
    <edge id="-1218337451#3" from="11289280586" to="11289260133" priority="1" type="highway.service" numLanes="1" speed="5.56" allow="pedestrian delivery bicycle"/>
    <edge id="-1218337452#0" from="11289260168" to="11289280578" priority="1" type="highway.service" numLanes="1" speed="5.56" allow="pedestrian delivery bicycle"/>
    <edge id="-1218337452#1" from="cluster_11289260158_11289260167" to="11289260168" priority="1" type="highway.service" numLanes="1" speed="5.56" shape="4343.90,2986.09 4329.34,2966.47 4327.38,2964.71 4325.32,2964.12 4323.45,2964.36 4297.49,2991.53 4313.15,3011.02" allow="pedestrian delivery bicycle"/>
    <edge id="-1218337452#2" from="cluster_11289260154_11289280569_11289280579" to="cluster_11289260158_11289260167" priority="1" type="highway.service" numLanes="1" speed="5.56" shape="4365.61,3013.21 4343.90,2986.09" allow="pedestrian delivery bicycle"/>
    <edge id="-1218337453" from="11289280575" to="11289280576" priority="1" type="highway.service" numLanes="1" speed="5.56" allow="pedestrian delivery bicycle"/>
    <edge id="-1218337454#0" from="11289280575" to="11289280577" priority="1" type="highway.service" numLanes="1" speed="5.56" allow="pedestrian delivery bicycle"/>
    <edge id="-1218337454#1" from="11289280578" to="11289280575" priority="1" type="highway.service" numLanes="1" speed="5.56" allow="pedestrian delivery bicycle"/>
    <edge id="-1218337454#10" from="11289260156" to="11289280587" priority="1" type="highway.service" numLanes="1" speed="5.56" allow="pedestrian delivery bicycle"/>
    <edge id="-1218337454#11" from="11289280586" to="11289260156" priority="1" type="highway.service" numLanes="1" speed="5.56" allow="pedestrian delivery bicycle"/>
    <edge id="-1218337454#12" from="11289260161" to="11289280586" priority="1" type="highway.service" numLanes="1" speed="5.56" allow="pedestrian delivery bicycle"/>
    <edge id="-1218337454#13" from="11289260160" to="11289260161" priority="1" type="highway.service" numLanes="1" speed="5.56" allow="pedestrian delivery bicycle"/>
    <edge id="-1218337454#14" from="11289280585" to="11289260160" priority="1" type="highway.service" numLanes="1" speed="5.56" allow="pedestrian delivery bicycle"/>
    <edge id="-1218337454#15" from="11289280584" to="11289280585" priority="1" type="highway.service" numLanes="1" speed="5.56" allow="pedestrian delivery bicycle"/>
    <edge id="-1218337454#16" from="11289260144" to="11289280584" priority="1" type="highway.service" numLanes="1" speed="5.56" allow="pedestrian delivery bicycle"/>
    <edge id="-1218337454#17" from="1510695970" to="11289260144" priority="1" type="highway.service" numLanes="1" speed="5.56" allow="pedestrian delivery bicycle"/>
    <edge id="-1218337454#2" from="cluster_11289260154_11289280569_11289280579" to="11289280578" priority="1" type="highway.service" numLanes="1" speed="5.56" shape="4365.61,3013.21 4335.21,3038.50" allow="pedestrian delivery bicycle"/>
    <edge id="-1218337454#4" from="11289260152" to="cluster_11289260154_11289280569_11289280579" priority="1" type="highway.service" numLanes="1" speed="5.56" shape="4382.01,3021.91 4371.39,3008.40" allow="pedestrian delivery bicycle"/>
    <edge id="-1218337454#5" from="11289260149" to="11289260152" priority="1" type="highway.service" numLanes="1" speed="5.56" allow="pedestrian delivery bicycle"/>
    <edge id="-1218337454#6" from="11289260166" to="11289260149" priority="1" type="highway.service" numLanes="1" speed="5.56" shape="4436.57,3032.61 4407.73,3054.67 4394.62,3037.98" allow="pedestrian delivery bicycle"/>
    <edge id="-1218337454#7" from="11289260148" to="11289260166" priority="1" type="highway.service" numLanes="1" speed="5.56" shape="4465.39,2983.90 4474.79,2995.95 4475.57,2998.40 4475.47,3001.43 4473.51,3004.38 4436.57,3032.61" allow="pedestrian delivery bicycle"/>
    <edge id="-1218337454#8" from="11289260151" to="11289260148" priority="1" type="highway.service" numLanes="1" speed="5.56" allow="pedestrian delivery bicycle"/>
    <edge id="-1218337454#9" from="11289280587" to="11289260151" priority="1" type="highway.service" numLanes="1" speed="5.56" allow="pedestrian delivery bicycle"/>
    <edge id="-123923810#0" from="cluster_12336785771_1380517138" to="cluster_12336785764_1380517052" priority="10" type="highway.tertiary" numLanes="1" speed="22.22" shape="4184.13,3747.92 4112.36,3834.73" disallow="tram rail_urban rail rail_electric rail_fast ship">
        <param key="ref" value="D 73"/>
    </edge>
    <edge id="-123923810#2" from="1380517134" to="cluster_12336785771_1380517138" priority="10" type="highway.tertiary" numLanes="1" speed="22.22" shape="4305.98,3699.27 4299.69,3698.17 4292.77,3697.60 4286.79,3698.18 4280.80,3699.30 4221.30,3723.83 4206.75,3730.83 4194.85,3738.42 4188.33,3742.85" disallow="tram rail_urban rail rail_electric rail_fast ship">
        <param key="ref" value="D 73"/>
    </edge>
    <edge id="-123923810#3" from="12336796813" to="1380517134" priority="10" type="highway.tertiary" numLanes="1" speed="22.22" shape="4338.34,3713.12 4319.66,3704.40 4305.98,3699.27" disallow="tram rail_urban rail rail_electric rail_fast ship">
        <param key="ref" value="D 73"/>
    </edge>
    <edge id="-123923810#4" from="1510696559" to="12336796813" priority="10" type="highway.tertiary" numLanes="1" speed="22.22" disallow="tram rail_urban rail rail_electric rail_fast ship">
        <param key="ref" value="D 73"/>
    </edge>
    <edge id="-123923810#5" from="cluster_12336728374_1830112082" to="1510696559" priority="10" type="highway.tertiary" numLanes="1" speed="22.22" shape="4368.25,3723.62 4366.59,3724.24 4363.12,3724.55 4359.39,3723.50 4350.20,3719.11" disallow="tram rail_urban rail rail_electric rail_fast ship">
        <param key="ref" value="D 73"/>
    </edge>
    <edge id="-123923815#0" from="1380517048" to="cluster_12301695991_1380517085_1510695906" priority="10" type="highway.tertiary" numLanes="1" speed="22.22" shape="4473.56,2909.51 4475.03,2851.98 4476.35,2813.76 4476.26,2774.72 4475.54,2754.66 4473.58,2736.97 4470.30,2723.31 4466.06,2710.64 4455.85,2685.49" disallow="tram rail_urban rail rail_electric rail_fast ship">
        <param key="ref" value="D 80"/>
    </edge>
    <edge id="-123923823#1" from="cluster_1380517082_8062638926_8062653176" to="cluster_12323881779_12323881782_12351537377_254625748_#2more" priority="3" type="highway.residential" numLanes="1" speed="13.89" shape="4124.89,2820.04 4070.96,2877.51" disallow="tram rail_urban rail rail_electric rail_fast ship"/>
    <edge id="-123923823#3" from="cluster_11768740356_12323881745" to="cluster_1380517082_8062638926_8062653176" priority="3" type="highway.residential" numLanes="1" speed="13.89" shape="4144.41,2780.56 4137.00,2799.64 4132.94,2809.47 4129.23,2815.38" disallow="tram rail_urban rail rail_electric rail_fast ship"/>
    <edge id="-123923823#4" from="cluster_11768740347_12323881742" to="cluster_11768740356_12323881745" priority="3" type="highway.residential" numLanes="1" speed="13.89" shape="4175.06,2743.07 4146.97,2776.37 4144.41,2780.56" disallow="tram rail_urban rail rail_electric rail_fast ship"/>
    <edge id="-123923823#5" from="cluster_1380517144_8062625517" to="cluster_11768740347_12323881742" priority="3" type="highway.residential" numLanes="1" speed="13.89" shape="4187.70,2728.08 4175.06,2743.07" disallow="tram rail_urban rail rail_electric rail_fast ship"/>
    <edge id="-123923824#0" from="1380517092" to="cluster_1380517116_1510696031_1510696032" priority="3" type="highway.residential" numLanes="1" speed="13.89" shape="3751.57,2871.64 3704.38,2906.20" disallow="tram rail_urban rail rail_electric rail_fast ship"/>
    <edge id="-123923824#1" from="1380517065" to="1380517092" priority="3" type="highway.residential" numLanes="1" speed="13.89" shape="3869.85,2740.15 3809.68,2811.54 3777.00,2851.15 3751.57,2871.64" disallow="tram rail_urban rail rail_electric rail_fast ship"/>
    <edge id="-123923824#2" from="cluster_1380517080_254625749" to="1380517065" priority="3" type="highway.residential" numLanes="1" speed="13.89" shape="3956.79,2611.13 3909.13,2635.67 3902.46,2641.48 3898.78,2646.96 3887.68,2682.17 3882.76,2716.30 3881.03,2723.16 3876.09,2732.47 3869.85,2740.15" disallow="tram rail_urban rail rail_electric rail_fast ship"/>
    <edge id="-123923831#1" from="cluster_12323874561_12323874564" to="cluster_1380517099_526283812_8062646213_8062654205" priority="3" type="highway.residential" numLanes="1" speed="13.89" shape="4246.22,2654.73 4264.23,2633.69" disallow="tram rail_urban rail rail_electric rail_fast ship"/>
    <edge id="-123923831#2" from="cluster_12323846089_12323881701_1510695909_8062608070" to="cluster_12323874561_12323874564" priority="3" type="highway.residential" numLanes="1" speed="13.89" shape="4219.65,2688.26 4246.22,2654.73" disallow="tram rail_urban rail rail_electric rail_fast ship"/>
    <edge id="-1248139738" from="2777571461" to="11768709179" priority="11" type="highway.secondary" numLanes="1" speed="27.78" shape="5690.10,378.14 5700.28,462.40 5711.52,530.19 5714.60,552.60 5715.06,577.74 5710.54,649.90 5706.11,715.91 5702.84,737.67 5697.94,758.86 5665.29,861.21 5658.55,881.55 5650.86,897.73 5641.35,911.69 5630.38,922.86 5619.37,931.59 5597.48,946.03 5564.89,967.36" disallow="tram rail_urban rail rail_electric rail_fast ship">
        <param key="ref" value="D 204"/>
    </edge>
    <edge id="-1267082172" from="11768709186" to="11768709185" priority="1" type="highway.service" numLanes="1" speed="5.56" allow="pedestrian delivery bicycle"/>
    <edge id="-1267082174" from="11768709192" to="12344024749" priority="1" type="highway.service" numLanes="1" speed="5.56" allow="pedestrian delivery bicycle"/>
    <edge id="-1267082175#0" from="cluster_11768709196_12375872010_12375872011" to="11768709204" priority="1" type="highway.service" numLanes="1" speed="5.56" shape="3609.48,1749.12 3609.10,1739.62 3596.94,1724.62" allow="pedestrian delivery bicycle"/>
    <edge id="-1267082177" from="11768709203" to="11768709204" priority="1" type="highway.service" numLanes="1" speed="5.56" shape="3656.89,1714.44 3616.95,1721.17 3596.94,1724.62" allow="pedestrian delivery bicycle"/>