<?xml version="1.0" encoding="UTF-8"?>

<!-- generated on 2025-04-04 16:23:03 by Eclipse SUMO netconvert Version 1.19.0
<configuration xmlns:xsi="http://www.w3.org/2001/XMLSchema-instance" xsi:noNamespaceSchemaLocation="http://sumo.dlr.de/xsd/netconvertConfiguration.xsd">

    <input>
        <sumo-net-file value="mantes_la_jolie/mantes_la_jolie.net.xml"/>
    </input>

    <output>
        <plain-output-prefix value="mantes_la_jolie/mantes_la_jolie"/>
    </output>

    <processing>
        <geometry.min-radius.fix.railways value="false"/>
        <geometry.max-grade.fix value="false"/>
        <offset.disable-normalization value="true"/>
        <lefthand value="0"/>
    </processing>

    <tls_building>
        <tls.ignore-internal-junction-jam value="1"/>
    </tls_building>

    <junctions>
        <no-turnarounds value="true"/>
        <junctions.corner-detail value="5"/>
        <junctions.limit-turn-speed value="5.50"/>
        <rectangular-lane-cut value="0"/>
    </junctions>

    <pedestrian>
        <walkingareas value="0"/>
    </pedestrian>

</configuration>
-->

<tlLogics version="1.16" xmlns:xsi="http://www.w3.org/2001/XMLSchema-instance" xsi:noNamespaceSchemaLocation="http://sumo.dlr.de/xsd/tllogic_file.xsd">
    <tlLogic id="10138368349" type="static" programID="0" offset="0">
        <phase duration="82" state="G"/>
        <phase duration="3"  state="y"/>
        <phase duration="5"  state="r"/>
    </tlLogic>
    <tlLogic id="10138368370" type="static" programID="0" offset="0">
        <phase duration="82" state="G"/>
        <phase duration="3"  state="y"/>
        <phase duration="5"  state="r"/>
    </tlLogic>
    <tlLogic id="2173516398" type="static" programID="0" offset="0">
        <phase duration="42" state="GGGgGrrr"/>
        <phase duration="3"  state="yyyyyrrr"/>
        <phase duration="42" state="rrrrGGGG"/>
        <phase duration="3"  state="rrrryyyy"/>
    </tlLogic>
    <tlLogic id="379663376" type="static" programID="0" offset="0">
        <phase duration="42" state="GgGgrr"/>
        <phase duration="3"  state="yyyyrr"/>
        <phase duration="42" state="rrrrGG"/>
        <phase duration="3"  state="rrrryy"/>
    </tlLogic>
    <tlLogic id="484664121" type="static" programID="0" offset="0">
        <phase duration="27" state="rrrGGgGrr"/>
        <phase duration="3"  state="rrryyyyrr"/>
        <phase duration="27" state="rrrrrrGGG"/>
        <phase duration="3"  state="rrrrrryyy"/>
        <phase duration="27" state="GGGrrrrrr"/>
        <phase duration="3"  state="yyyrrrrrr"/>
    </tlLogic>
    <tlLogic id="484664127" type="static" programID="0" offset="0">
        <phase duration="42" state="rrrGggGGg"/>
        <phase duration="3"  state="rrryyyyyy"/>
        <phase duration="42" state="GGGrrrrrr"/>
        <phase duration="3"  state="yyyrrrrrr"/>
    </tlLogic>
    <tlLogic id="495146941" type="static" programID="0" offset="0">
        <phase duration="82" state="GGG"/>
        <phase duration="3"  state="yyy"/>
        <phase duration="5"  state="rrr"/>
    </tlLogic>
    <tlLogic id="528801875" type="static" programID="0" offset="0">
        <phase duration="42" state="GggrrrGGg"/>
        <phase duration="3"  state="yyyrrryyy"/>
        <phase duration="42" state="rrrGGgGrr"/>
        <phase duration="3"  state="rrryyyyrr"/>
    </tlLogic>
    <tlLogic id="540180467" type="static" programID="0" offset="0">
        <phase duration="27" state="GGgGrrrrr"/>
        <phase duration="3"  state="yyyyrrrrr"/>
        <phase duration="27" state="GrrrrrGGg"/>
        <phase duration="3"  state="yrrrrryyy"/>
        <phase duration="27" state="rrrGGGrrr"/>
        <phase duration="3"  state="rrryyyrrr"/>
    </tlLogic>
    <tlLogic id="600110571" type="static" programID="0" offset="0">
        <phase duration="42" state="rrGgGg"/>
        <phase duration="3"  state="rryyyy"/>
        <phase duration="42" state="GGrrrr"/>
        <phase duration="3"  state="yyrrrr"/>
    </tlLogic>
    <tlLogic id="600110573" type="static" programID="0" offset="0">
        <phase duration="42" state="GGggrrrrGGgg"/>
        <phase duration="3"  state="yyyyrrrryyyy"/>
        <phase duration="42" state="rrrrGGGgGrrr"/>
        <phase duration="3"  state="rrrryyyyyrrr"/>
    </tlLogic>
    <tlLogic id="615216458" type="static" programID="0" offset="0">
        <phase duration="42" state="GGgGggrrr"/>
        <phase duration="3"  state="yyyyyyrrr"/>
        <phase duration="42" state="GrrrrrGGg"/>
        <phase duration="3"  state="yrrrrryyy"/>
    </tlLogic>
    <tlLogic id="6627228639" type="static" programID="0" offset="0">
        <phase duration="39" state="GGgrrGg"/>
        <phase duration="6"  state="yyyrryy"/>
        <phase duration="39" state="rrrGGrr"/>
        <phase duration="6"  state="rrryyrr"/>
    </tlLogic>
    <tlLogic id="GS_cluster_2105407304_3593961900_3593961901_3593961902_#4more" type="static" programID="0" offset="0">
        <phase duration="41" state="rrrrrrrgggggggGGGggggrrrrrggggggggGg"/>
        <phase duration="3"  state="rrrrrrryyyyyyyyyyyyyyrrrrryyyyyyyyyy"/>
        <phase duration="1"  state="rrrrrrrrrrrrrrrrrrrrrrrrrrrrrrrrrrrr"/>
        <phase duration="41" state="GGGGgggGrrrrrrrrrrrrrGGgggrrrrrrrrrr"/>
        <phase duration="3"  state="yyyyyyyyrrrrrrrrrrrrryyyyyrrrrrrrrrr"/>
        <phase duration="1"  state="rrrrrrrrrrrrrrrrrrrrrrrrrrrrrrrrrrrr"/>
    </tlLogic>
    <tlLogic id="GS_cluster_302834437_94574118" type="static" programID="0" offset="0">
        <phase duration="42" state="rrrrGGggrrrrGGgg"/>
        <phase duration="3"  state="rrrryyyyrrrryyyy"/>
        <phase duration="42" state="GGggrrrrGGggrrrr"/>
        <phase duration="3"  state="yyyyrrrryyyyrrrr"/>
    </tlLogic>
    <tlLogic id="GS_cluster_302850393_494093834" type="static" programID="0" offset="0">
        <phase duration="42" state="rrrrGGggrrrrGGgg"/>
        <phase duration="3"  state="rrrryyyyrrrryyyy"/>
        <phase duration="42" state="GGggrrrrGGggrrrr"/>
        <phase duration="3"  state="yyyyrrrryyyyrrrr"/>
    </tlLogic>
    <tlLogic id="GS_cluster_302850400_614732835_9983036485_9983036486" type="static" programID="0" offset="0">
        <phase duration="42" state="rrrrGGggGGgg"/>
        <phase duration="3"  state="rrrryyyyyyyy"/>
        <phase duration="42" state="GGGgGrrrrrrr"/>
        <phase duration="3"  state="yyyyyrrrrrrr"/>
    </tlLogic>
    <tlLogic id="GS_cluster_379663357_9969531714" type="static" programID="0" offset="0">
        <phase duration="42" state="GGggrrrrGGggrrrr"/>
        <phase duration="3"  state="yyyyrrrryyyyrrrr"/>
        <phase duration="42" state="rrrrGGggrrrrGGgg"/>
        <phase duration="3"  state="rrrryyyyrrrryyyy"/>
    </tlLogic>
    <tlLogic id="GS_cluster_3810985302_9968551940" type="static" programID="0" offset="0">
        <phase duration="40" state="GGgrGG"/>
        <phase duration="5"  state="yyyryy"/>
        <phase duration="40" state="rrrGrr"/>
        <phase duration="5"  state="rrryrr"/>
    </tlLogic>
    <tlLogic id="GS_cluster_484664147_9985324058" type="static" programID="0" offset="0">
        <phase duration="42" state="GGggrrrrGGggrrrr"/>
        <phase duration="3"  state="yyyyrrrryyyyrrrr"/>
        <phase duration="42" state="rrrrGGggrrrrGGgg"/>
        <phase duration="3"  state="rrrryyyyrrrryyyy"/>
    </tlLogic>
    <tlLogic id="GS_cluster_494093776_614732832" type="static" programID="0" offset="0">
        <phase duration="42" state="GGggrrrrGGgg"/>
        <phase duration="3"  state="yyyyrrrryyyy"/>
        <phase duration="42" state="rrrrGGGgGrrr"/>
        <phase duration="3"  state="rrrryyyyyrrr"/>
    </tlLogic>
    <tlLogic id="GS_cluster_494093861_494093869_5715266973" type="static" programID="0" offset="0">
        <phase duration="42" state="rrrrGGggrrrrGGgg"/>
        <phase duration="3"  state="rrrryyyyrrrryyyy"/>
        <phase duration="42" state="GGggrrrrGGggrrrr"/>
        <phase duration="3"  state="yyyyrrrryyyyrrrr"/>
    </tlLogic>
    <tlLogic id="GS_cluster_588518993_9969531708" type="static" programID="0" offset="0">
        <phase duration="42" state="GggrrrGGg"/>
        <phase duration="3"  state="yyyrrryyy"/>
        <phase duration="42" state="rrrGGgGrr"/>
        <phase duration="3"  state="rrryyyyrr"/>
    </tlLogic>
    <tlLogic id="GS_cluster_588519032_9969531694" type="static" programID="0" offset="0">
        <phase duration="42" state="GggrrrGGg"/>
        <phase duration="3"  state="yyyrrryyy"/>
        <phase duration="42" state="rrrGGgGrr"/>
        <phase duration="3"  state="rrryyyyrr"/>
    </tlLogic>
    <tlLogic id="GS_cluster_600110594_9983036463" type="static" programID="0" offset="0">
        <phase duration="27" state="rrGgrrGg"/>
        <phase duration="3"  state="rryyrryy"/>
        <phase duration="27" state="GGrrrrrr"/>
        <phase duration="3"  state="yyrrrrrr"/>
        <phase duration="27" state="rrrrGGrr"/>
        <phase duration="3"  state="rrrryyrr"/>
    </tlLogic>
    <tlLogic id="GS_cluster_751090488_9969531688" type="static" programID="0" offset="0">
        <phase duration="42" state="GGgGggrrr"/>
        <phase duration="3"  state="yyyyyyrrr"/>
        <phase duration="42" state="GrrrrrGGg"/>
        <phase duration="3"  state="yrrrrryyy"/>
    </tlLogic>
    <tlLogic id="cluster_10061360841_2125644758_479755404_484610143_#15more" type="static" programID="0" offset="0">
        <phase duration="23" state="GrrrrrrGGg"/>
        <phase duration="3"  state="yrrrrrryyy"/>
        <phase duration="3"  state="rrrrrrrrrr"/>
        <phase duration="24" state="rGGgGrrrrr"/>
        <phase duration="3"  state="ryyyyrrrrr"/>
        <phase duration="2"  state="rrrrrrrrrr"/>
        <phase duration="24" state="rrrrGGGrrr"/>
        <phase duration="3"  state="rrrryyyrrr"/>
        <phase duration="5"  state="rrrrrrrrrr"/>
    </tlLogic>
    <tlLogic id="cluster_1084061697_1084061713_9969531618" type="static" programID="0" offset="0">
        <phase duration="20" state="rrrrrrrrrrrrGGrrrrrrrGGGrrr"/>
        <phase duration="5"  state="rrrrrrrrrrrryyrrrrrrryyyrrr"/>
        <phase duration="6"  state="rrrrrrrrrrggrrGGrrrrrrrrGgG"/>
        <phase duration="5"  state="rrrrrrrrrryyrryyrrrrrrrryyy"/>
        <phase duration="22" state="GGgggrrrrrrrrrrrGGGggrrrrrr"/>
        <phase duration="5"  state="yyyyyrrrrrrrrrrryyyyyrrrrrr"/>
        <phase duration="22" state="rrrrrGGGGgGrrrrrrrrrrrrrrrr"/>
        <phase duration="5"  state="rrrrryyyyyyrrrrrrrrrrrrrrrr"/>
    </tlLogic>
    <tlLogic id="cluster_11049478836_614733674_9968101226" type="static" programID="0" offset="0">
        <phase duration="42" state="rrrrGGggrrrrGGgg"/>
        <phase duration="3"  state="rrrryyyyrrrryyyy"/>
        <phase duration="42" state="GGggrrrrGGggrrrr"/>
        <phase duration="3"  state="yyyyrrrryyyyrrrr"/>
    </tlLogic>
    <tlLogic id="cluster_1113658492_4060171169_484664137_6286659488_#1more" type="static" programID="0" offset="0">
        <phase duration="27" state="rrrrrrGGgGrr"/>
        <phase duration="3"  state="rrrrrryyyyrr"/>
        <phase duration="27" state="rrrGggrrrGGg"/>
        <phase duration="3"  state="rrryyyrrryyy"/>
        <phase duration="27" state="GGGrrrrrrrrr"/>
        <phase duration="3"  state="yyyrrrrrrrrr"/>
    </tlLogic>
    <tlLogic id="cluster_11839159091_9975882132_9975882137_9975882140_#3more" type="static" programID="0" offset="0">
        <phase duration="27" state="rrrrGGggrrrrrgGgg"/>
        <phase duration="3"  state="rrrryyyyrrrrryyyy"/>
        <phase duration="27" state="rrrrrrrrGGGGGrrrr"/>
        <phase duration="3"  state="rrrrrrrryyyyyrrrr"/>
        <phase duration="27" state="GGGgGrrrrrrrrrrrr"/>
        <phase duration="3"  state="yyyyyrrrrrrrrrrrr"/>
    </tlLogic>
    <tlLogic id="cluster_2166935463_2166935500_2166935502_3246354282_#2more" type="static" programID="0" offset="0">
        <phase duration="40" state="GGggGGGrr"/>
        <phase duration="5"  state="yyyyyyyrr"/>
        <phase duration="40" state="rrrrrrrGG"/>
        <phase duration="5"  state="rrrrrrryy"/>
    </tlLogic>
    <tlLogic id="cluster_2166935496_379663371" type="static" programID="0" offset="0">
        <phase duration="35" state="GGGrrrGgg"/>
        <phase duration="5"  state="yyyrrrygg"/>
        <phase duration="6"  state="rrrrrrGGG"/>
        <phase duration="5"  state="rrrrrryyy"/>
        <phase duration="34" state="rrrGGGrrr"/>
        <phase duration="5"  state="rrryyyrrr"/>
    </tlLogic>
    <tlLogic id="cluster_379663366_600110405_9969531726_9979822943" type="static" programID="0" offset="0">
        <phase duration="42" state="GGggrrrrGGggrrrr"/>
        <phase duration="3"  state="yyyyrrrryyyyrrrr"/>
        <phase duration="42" state="rrrrGGggrrrrGGgg"/>
        <phase duration="3"  state="rrrryyyyrrrryyyy"/>
    </tlLogic>
    <tlLogic id="cluster_495146922_614732746" type="static" programID="0" offset="0">
        <phase duration="27" state="rrrrrrrrrGGG"/>
        <phase duration="3"  state="rrrrrrrrryyy"/>
        <phase duration="27" state="GggrrrGGgrrr"/>
        <phase duration="3"  state="yyyrrryyyrrr"/>
        <phase duration="27" state="rrrGGgGrrrrr"/>
        <phase duration="3"  state="rrryyyyrrrrr"/>
    </tlLogic>
    <tlLogic id="joinedS_1138880668_1138880755" type="static" programID="0" offset="0">
        <phase duration="82" state="GGGGGG"/>
        <phase duration="3"  state="yyyyyy"/>
        <phase duration="5"  state="rrrrrr"/>
    </tlLogic>
    <tlLogic id="joinedS_2265030749_2265030765_484610236" type="static" programID="0" offset="0">
        <phase duration="9"  state="GGrrrrrrrrrr"/>
        <phase duration="6"  state="yyrrrrrrrrrr"/>
        <phase duration="9"  state="rrGGrrrrrrrr"/>
        <phase duration="6"  state="rryyrrrrrrrr"/>
        <phase duration="9"  state="rrrrGGrrrrrr"/>
        <phase duration="6"  state="rrrryyrrrrrr"/>
        <phase duration="9"  state="rrrrrrGGrrrr"/>
        <phase duration="6"  state="rrrrrryyrrrr"/>
        <phase duration="9"  state="rrrrrrrrGGrr"/>
        <phase duration="6"  state="rrrrrrrryyrr"/>
        <phase duration="9"  state="rrrrrrrrrrGG"/>
        <phase duration="6"  state="rrrrrrrrrryy"/>
    </tlLogic>
    <tlLogic id="joinedS_3246354326_528801946" type="static" programID="0" offset="0">
        <phase duration="27" state="GrGGggrrrrGGggrrrr"/>
        <phase duration="3"  state="yryyyyrrrryyyyrrrr"/>
        <phase duration="27" state="GrrrrrGGGgGrrrrrrr"/>
        <phase duration="3"  state="yrrrrryyyyyrrrrrrr"/>
        <phase duration="27" state="GGGrrrrrrrrrrrGGGg"/>
        <phase duration="3"  state="yyyrrrrrrrrrrryyyy"/>
    </tlLogic>
    <tlLogic id="joinedS_3246614355_cluster_2119838689_3246614357_600111247_8930974148" type="static" programID="0" offset="0">
        <phase duration="27" state="GrrrrrGGggrrrrGGgg"/>
        <phase duration="3"  state="yrrrrryyyyrrrryyyy"/>
        <phase duration="27" state="GGrrrrrrrrGGGgGrrr"/>
        <phase duration="3"  state="yyrrrrrrrryyyyyrrr"/>
        <phase duration="27" state="GrGGGGrrrrrrrrrrrr"/>
        <phase duration="3"  state="yryyyyrrrrrrrrrrrr"/>
    </tlLogic>
    <tlLogic id="joinedS_5710376296_5710504308_9975882080" type="static" programID="0" offset="0">
        <phase duration="27" state="GGGGGGr"/>
        <phase duration="3"  state="yyyyyyr"/>
        <phase duration="27" state="GGGGGGr"/>
        <phase duration="3"  state="yyyyyyr"/>
        <phase duration="27" state="GGGGGrG"/>
        <phase duration="3"  state="yyyyyry"/>
    </tlLogic>
    <tlLogic id="joinedS_7474598458_7569633335_8930974153_cluster_484664144_5629756555_5629756556_7474598460" type="static" programID="0" offset="0">
        <phase duration="15" state="GGGrGGGGGrrrrrrrrrrrr"/>
        <phase duration="3"  state="yyyryyyyyrrrrrrrrrrrr"/>
        <phase duration="15" state="rrrGrrrrrrrrrrrrrrrrr"/>
        <phase duration="3"  state="rrryrrrrrrrrrrrrrrrrr"/>
        <phase duration="15" state="rGGrrrrrrGGGGrrrrrrrr"/>
        <phase duration="3"  state="ryyrrrrrryyyyrrrrrrrr"/>
        <phase duration="15" state="rGGrrrrrrrrrrGGGGrrrr"/>
        <phase duration="3"  state="ryyrrrrrrrrrryyyyrrrr"/>
        <phase duration="15" state="rGGrrrrrrrrrrrrrrGGGG"/>
        <phase duration="3"  state="ryyrrrrrrrrrrrrrryyyy"/>
    </tlLogic>
    <tlLogic id="joinedS_cluster_11055019175_3247021772_615216558_9895782752_cluster_3247021774_614732247" type="static" programID="0" offset="0">
        <phase duration="15" state="GGGGGgGrrrrrrrrrrrrrrrrrrrrrrrrrrrGGGGggrrrrrrGGggggrrrrrrrrrrrrrrrrrr"/>
        <phase duration="3"  state="yyyyyyyrrrrrrrrrrrrrrrrrrrrrrrrrrryyyyyyrrrrrryyyyyyrrrrrrrrrrrrrrrrrr"/>
        <phase duration="18" state="rrrrrrrrrrrrrrrrrGGGGggrrrrrGGggggrrrrrrrrrrrrrrrrrrGGGGGgGrrrrrrrrrrr"/>
        <phase duration="3"  state="rrrrrrrrrrrrrrrrryyyyyyrrrrryyyyyyrrrrrrrrrrrrrrrrrryyyyyyyrrrrrrrrrrr"/>
        <phase duration="18" state="rrrrrrGGGGGGgggggrrrrrrrrrrrrrrrrrrrrrrrGGGgggrrrrrrrrrrrrGGGgggrrrrrr"/>
        <phase duration="3"  state="rrrrrryyyyyyyyyyyrrrrrrrrrrrrrrrrrrrrrrryyyyyyrrrrrrrrrrrryyyyyyrrrrrr"/>
        <phase duration="18" state="rrrrrrGGGggggggggrrrrrrgGGggrrrrrrrrrrrrrrrrrrrrrrrrrrrrrrGGGgggGggggg"/>
        <phase duration="3"  state="rrrrrryyyggggggggrrrrrrgyyggrrrrrrrrrrrrrrrrrrrrrrrrrrrrrryyygggyggggg"/>
        <phase duration="6"  state="rrrrrrGGGGGGgggggrrrrrrgrrggrrrrrrrrrrrrrrrrrrrrrrrrrrrrrrGGGggGrggggg"/>
        <phase duration="3"  state="rrrrrryyyyyyyyyyyrrrrrryrryyrrrrrrrrrrrrrrrrrrrrrrrrrrrrrryyyyyyryyyyy"/>
    </tlLogic>

    <connection from="-1079538611" to="-48439906#1" fromLane="0" toLane="0" tl="joinedS_cluster_11055019175_3247021772_615216558_9895782752_cluster_3247021774_614732247" linkIndex="0"/>
    <connection from="-1079538611" to="560374486#3" fromLane="0" toLane="0" tl="joinedS_cluster_11055019175_3247021772_615216558_9895782752_cluster_3247021774_614732247" linkIndex="1"/>
    <connection from="-1079538611" to="-810659649#4" fromLane="0" toLane="0" tl="joinedS_cluster_11055019175_3247021772_615216558_9895782752_cluster_3247021774_614732247" linkIndex="2"/>
    <connection from="-1079538611" to="810659649#5" fromLane="0" toLane="0" tl="joinedS_cluster_11055019175_3247021772_615216558_9895782752_cluster_3247021774_614732247" linkIndex="3"/>
    <connection from="-1079538611" to="-560374486#0" fromLane="0" toLane="0" tl="joinedS_cluster_11055019175_3247021772_615216558_9895782752_cluster_3247021774_614732247" linkIndex="4"/>
    <connection from="-1079538611" to="1154087981#1" fromLane="0" toLane="0" tl="joinedS_cluster_11055019175_3247021772_615216558_9895782752_cluster_3247021774_614732247" linkIndex="5"/>
    <connection from="-1087786391#1" to="1087786392#0" fromLane="0" toLane="0" tl="GS_cluster_302850393_494093834" linkIndex="8"/>
    <connection from="-1087786391#1" to="-40679910#4" fromLane="0" toLane="0" tl="GS_cluster_302850393_494093834" linkIndex="9"/>
    <connection from="-1087786391#1" to="1087944011#0" fromLane="0" toLane="0" tl="GS_cluster_302850393_494093834" linkIndex="10"/>
    <connection from="-1087786391#1" to="1087786391#0" fromLane="0" toLane="0" tl="GS_cluster_302850393_494093834" linkIndex="11"/>
    <connection from="-1088014284#2" to="-403681827#12" fromLane="0" toLane="0" tl="GS_cluster_600110594_9983036463" linkIndex="6"/>
    <connection from="-1088014284#2" to="1088014284#0" fromLane="0" toLane="0" tl="GS_cluster_600110594_9983036463" linkIndex="7"/>
    <connection from="-1088106855#1" to="-403681826#3" fromLane="0" toLane="0" tl="joinedS_3246354326_528801946" linkIndex="10"/>
    <connection from="-1088106855#1" to="-27581895#2" fromLane="0" toLane="0" tl="joinedS_3246354326_528801946" linkIndex="11"/>
    <connection from="-1088106855#1" to="-984694223#1" fromLane="0" toLane="0" tl="joinedS_3246354326_528801946" linkIndex="12"/>
    <connection from="-1088106855#1" to="1088106855#0" fromLane="0" toLane="0" tl="joinedS_3246354326_528801946" linkIndex="13"/>
    <connection from="-1154087980" to="-560374486#0" fromLane="0" toLane="0" tl="joinedS_cluster_11055019175_3247021772_615216558_9895782752_cluster_3247021774_614732247" linkIndex="11"/>
    <connection from="-1154087980" to="1154087981#1" fromLane="0" toLane="0" tl="joinedS_cluster_11055019175_3247021772_615216558_9895782752_cluster_3247021774_614732247" linkIndex="12"/>
    <connection from="-1154087980" to="-48439906#1" fromLane="0" toLane="0" tl="joinedS_cluster_11055019175_3247021772_615216558_9895782752_cluster_3247021774_614732247" linkIndex="13"/>
    <connection from="-1154087980" to="560374486#3" fromLane="0" toLane="0" tl="joinedS_cluster_11055019175_3247021772_615216558_9895782752_cluster_3247021774_614732247" linkIndex="14"/>
    <connection from="-1154087980" to="-810659649#4" fromLane="0" toLane="0" tl="joinedS_cluster_11055019175_3247021772_615216558_9895782752_cluster_3247021774_614732247" linkIndex="15"/>
    <connection from="-1154087980" to="810659649#5" fromLane="0" toLane="0" tl="joinedS_cluster_11055019175_3247021772_615216558_9895782752_cluster_3247021774_614732247" linkIndex="16"/>
    <connection from="-1276122756#1" to="-1276122756#0" fromLane="0" toLane="0" tl="11847523844" linkIndex="1"/>
    <connection from="-1276122765#1" to="-1276122765#0" fromLane="0" toLane="0" tl="11847523885" linkIndex="0"/>
    <connection from="-150115466#2" to="560370907#0" fromLane="0" toLane="0" tl="cluster_11049478836_614733674_9968101226" linkIndex="4"/>
    <connection from="-150115466#2" to="1087944014#0" fromLane="0" toLane="0" tl="cluster_11049478836_614733674_9968101226" linkIndex="5"/>
    <connection from="-150115466#2" to="-48439952#3" fromLane="0" toLane="0" tl="cluster_11049478836_614733674_9968101226" linkIndex="6"/>
    <connection from="-150115466#2" to="150115466#0" fromLane="0" toLane="0" tl="cluster_11049478836_614733674_9968101226" linkIndex="7"/>
    <connection from="-200571508#1" to="42352384#0" fromLane="0" toLane="0" tl="cluster_11839159091_9975882132_9975882137_9975882140_#3more" linkIndex="4"/>
    <connection from="-200571508#1" to="-431916954#1" fromLane="0" toLane="0" tl="cluster_11839159091_9975882132_9975882137_9975882140_#3more" linkIndex="5"/>
    <connection from="-200571508#1" to="253156705#3" fromLane="0" toLane="1" tl="cluster_11839159091_9975882132_9975882137_9975882140_#3more" linkIndex="6"/>
    <connection from="-200571508#1" to="200571508#1" fromLane="0" toLane="0" tl="cluster_11839159091_9975882132_9975882137_9975882140_#3more" linkIndex="7"/>
    <connection from="-27581895#0" to="1090119898#0" fromLane="0" toLane="0" tl="GS_cluster_484664147_9985324058" linkIndex="8"/>
    <connection from="-27581895#0" to="-27581897#6" fromLane="0" toLane="0" tl="GS_cluster_484664147_9985324058" linkIndex="9"/>
    <connection from="-27581895#0" to="1090119896#0" fromLane="0" toLane="0" tl="GS_cluster_484664147_9985324058" linkIndex="10"/>
    <connection from="-27581895#0" to="1090119895" fromLane="0" toLane="0" tl="GS_cluster_484664147_9985324058" linkIndex="11"/>
    <connection from="-27581897#1" to="858026064" fromLane="0" toLane="0" tl="joinedS_2265030749_2265030765_484610236" linkIndex="2"/>
    <connection from="-27581897#1" to="27581897#0" fromLane="0" toLane="0" tl="joinedS_2265030749_2265030765_484610236" linkIndex="3"/>
    <connection from="-27581897#6" to="-27581897#2" fromLane="0" toLane="0" tl="379663376" linkIndex="2"/>
    <connection from="-27581897#6" to="27581897#3" fromLane="0" toLane="0" tl="379663376" linkIndex="3"/>
    <connection from="-288039367#9" to="-288039367#8" fromLane="0" toLane="0" tl="joinedS_3246614355_cluster_2119838689_3246614357_600111247_8930974148" linkIndex="0"/>
    <connection from="-29108507#1" to="857540449#0" fromLane="0" toLane="0" tl="joinedS_2265030749_2265030765_484610236" linkIndex="4"/>
    <connection from="-29108507#1" to="29108507#0" fromLane="0" toLane="0" tl="joinedS_2265030749_2265030765_484610236" linkIndex="5"/>
    <connection from="-318261820#0" to="684913113#0" fromLane="0" toLane="0" tl="joinedS_3246614355_cluster_2119838689_3246614357_600111247_8930974148" linkIndex="2"/>
    <connection from="-318261820#0" to="-288039367#9" fromLane="0" toLane="0" tl="joinedS_3246614355_cluster_2119838689_3246614357_600111247_8930974148" linkIndex="3"/>
    <connection from="-318261820#0" to="201989104#1" fromLane="0" toLane="0" tl="joinedS_3246614355_cluster_2119838689_3246614357_600111247_8930974148" linkIndex="4"/>
    <connection from="-318261820#0" to="318261820#0" fromLane="0" toLane="0" tl="joinedS_3246614355_cluster_2119838689_3246614357_600111247_8930974148" linkIndex="5"/>
    <connection from="-361851014#0" to="560370857#0" fromLane="0" toLane="0" tl="495146941" linkIndex="0"/>
    <connection from="-361851014#0" to="361851013#0" fromLane="0" toLane="0" tl="495146941" linkIndex="1"/>
    <connection from="-361851014#0" to="361851014#0" fromLane="0" toLane="0" tl="495146941" linkIndex="2"/>
    <connection from="-385039448#0" to="231265513#3" fromLane="0" toLane="0" tl="cluster_1084061697_1084061713_9969531618" linkIndex="0"/>
    <connection from="-385039448#0" to="93508617#1" fromLane="0" toLane="0" tl="cluster_1084061697_1084061713_9969531618" linkIndex="1"/>
    <connection from="-385039448#0" to="1088106853#5" fromLane="0" toLane="1" tl="cluster_1084061697_1084061713_9969531618" linkIndex="2"/>
    <connection from="-385039448#0" to="-93508602#2" fromLane="0" toLane="0" tl="cluster_1084061697_1084061713_9969531618" linkIndex="3"/>
    <connection from="-385039448#0" to="385039448#0" fromLane="0" toLane="0" tl="cluster_1084061697_1084061713_9969531618" linkIndex="4"/>
    <connection from="-40205758#1" to="857540448" fromLane="0" toLane="0" tl="joinedS_2265030749_2265030765_484610236" linkIndex="8"/>
    <connection from="-40205758#1" to="40205758#0" fromLane="0" toLane="0" tl="joinedS_2265030749_2265030765_484610236" linkIndex="9"/>
    <connection from="-40209640#1" to="1089809989#0" fromLane="0" toLane="0" tl="484664121" linkIndex="3"/>
    <connection from="-40209640#1" to="-560321615#6" fromLane="0" toLane="0" tl="484664121" linkIndex="4"/>
    <connection from="-40209640#1" to="40209640#0" fromLane="0" toLane="0" tl="484664121" linkIndex="5"/>
    <connection from="-40209640#4" to="43115320#0" fromLane="0" toLane="0" tl="540180467" linkIndex="6"/>
    <connection from="-40209640#4" to="-40209640#3" fromLane="0" toLane="0" tl="540180467" linkIndex="7"/>
    <connection from="-40209640#4" to="40209640#4" fromLane="0" toLane="0" tl="540180467" linkIndex="8"/>
    <connection from="-40209640#7" to="-40209640#6" fromLane="0" toLane="0" tl="joinedS_7474598458_7569633335_8930974153_cluster_484664144_5629756555_5629756556_7474598460" linkIndex="1"/>
    <connection from="-40209643#2" to="-40209644#5" fromLane="0" toLane="0" tl="cluster_1113658492_4060171169_484664137_6286659488_#1more" linkIndex="3"/>
    <connection from="-40209643#2" to="403681816#1" fromLane="0" toLane="0" tl="cluster_1113658492_4060171169_484664137_6286659488_#1more" linkIndex="4"/>
    <connection from="-40209643#2" to="40209643#1" fromLane="0" toLane="0" tl="cluster_1113658492_4060171169_484664137_6286659488_#1more" linkIndex="5"/>
    <connection from="-403681827#1" to="-318261808#1" fromLane="0" toLane="0" tl="600110573" linkIndex="8"/>
    <connection from="-403681827#1" to="-42354215#5" fromLane="0" toLane="0" tl="600110573" linkIndex="9"/>
    <connection from="-403681827#1" to="47050400#0" fromLane="0" toLane="0" tl="600110573" linkIndex="10"/>
    <connection from="-403681827#1" to="403681827#0" fromLane="0" toLane="0" tl="600110573" linkIndex="11"/>
    <connection from="-403681827#3" to="-403681827#1" fromLane="0" toLane="0" tl="600110571" linkIndex="4"/>
    <connection from="-403681827#3" to="403681827#2" fromLane="0" toLane="0" tl="600110571" linkIndex="5"/>
    <connection from="-42352384#0" to="-431916954#1" fromLane="0" toLane="0" tl="cluster_11839159091_9975882132_9975882137_9975882140_#3more" linkIndex="0"/>
    <connection from="-42352384#0" to="253156705#3" fromLane="0" toLane="0" tl="cluster_11839159091_9975882132_9975882137_9975882140_#3more" linkIndex="1"/>
    <connection from="-42352384#0" to="200571508#1" fromLane="0" toLane="0" tl="cluster_11839159091_9975882132_9975882137_9975882140_#3more" linkIndex="2"/>
    <connection from="-42352384#0" to="42352384#0" fromLane="0" toLane="0" tl="cluster_11839159091_9975882132_9975882137_9975882140_#3more" linkIndex="3"/>
    <connection from="-430505398" to="1089459491" fromLane="0" toLane="0" tl="cluster_379663366_600110405_9969531726_9979822943" linkIndex="12"/>
    <connection from="-430505398" to="47050501#1" fromLane="0" toLane="0" tl="cluster_379663366_600110405_9969531726_9979822943" linkIndex="13"/>
    <connection from="-430505398" to="683649604#1" fromLane="0" toLane="0" tl="cluster_379663366_600110405_9969531726_9979822943" linkIndex="14"/>
    <connection from="-430505398" to="430505398" fromLane="0" toLane="0" tl="cluster_379663366_600110405_9969531726_9979822943" linkIndex="15"/>
    <connection from="-458462777#0" to="1089821636#0" fromLane="0" toLane="0" tl="GS_cluster_379663357_9969531714" linkIndex="4"/>
    <connection from="-458462777#0" to="-46158975#5" fromLane="0" toLane="0" tl="GS_cluster_379663357_9969531714" linkIndex="5"/>
    <connection from="-458462777#0" to="1089821643#0" fromLane="0" toLane="0" tl="GS_cluster_379663357_9969531714" linkIndex="6"/>
    <connection from="-458462777#0" to="458462777#0" fromLane="0" toLane="0" tl="GS_cluster_379663357_9969531714" linkIndex="7"/>
    <connection from="-46158971#3" to="1088106858#3" fromLane="0" toLane="0" tl="GS_cluster_588518993_9969531708" linkIndex="3"/>
    <connection from="-46158971#3" to="683649606#5" fromLane="0" toLane="0" tl="GS_cluster_588518993_9969531708" linkIndex="4"/>