<?xml version="1.0" encoding="UTF-8"?>

<!-- generated on 2025-04-04 16:23:03 by Eclipse SUMO netconvert Version 1.19.0
<configuration xmlns:xsi="http://www.w3.org/2001/XMLSchema-instance" xsi:noNamespaceSchemaLocation="http://sumo.dlr.de/xsd/netconvertConfiguration.xsd">

    <input>
        <sumo-net-file value="mantes_la_jolie/mantes_la_jolie.net.xml"/>
    </input>

    <output>
        <plain-output-prefix value="mantes_la_jolie/mantes_la_jolie"/>
    </output>

    <processing>
        <geometry.min-radius.fix.railways value="false"/>
        <geometry.max-grade.fix value="false"/>
        <offset.disable-normalization value="true"/>
        <lefthand value="0"/>
    </processing>

    <tls_building>
        <tls.ignore-internal-junction-jam value="1"/>
    </tls_building>

    <junctions>
        <no-turnarounds value="true"/>
        <junctions.corner-detail value="5"/>
        <junctions.limit-turn-speed value="5.50"/>
        <rectangular-lane-cut value="0"/>
    </junctions>

    <pedestrian>
        <walkingareas value="0"/>
    </pedestrian>

</configuration>
-->

<edges version="1.16" xmlns:xsi="http://www.w3.org/2001/XMLSchema-instance" xsi:noNamespaceSchemaLocation="http://sumo.dlr.de/xsd/edges_file.xsd">
    <location netOffset="-397053.72,-5423062.57" convBoundary="0.00,0.00,15686.92,8413.09" origBoundary="1.592153,48.953423,1.807858,49.029195" projParameter="+proj=utm +zone=31 +ellps=WGS84 +datum=WGS84 +units=m +no_defs"/>

    <edge id="-1003619987#0" from="cluster_4944122334_8365603105" to="cluster_599360517_7403487438" priority="1" type="highway.cycleway" numLanes="1" speed="5.56" shape="10920.91,3421.65 10923.06,3423.93 10933.59,3435.12 10957.20,3460.02 10982.59,3487.54 10995.59,3502.40 11011.49,3519.95 11017.03,3525.33 11025.68,3532.04 11037.26,3538.21 11047.99,3542.87 11067.85,3551.50 11081.57,3558.37 11082.60,3558.51 11084.01,3558.13 11087.29,3556.19" width="2.00" allow="bicycle"/>
    <edge id="-1003619987#1" from="9260784998" to="cluster_4944122334_8365603105" priority="1" type="highway.cycleway" numLanes="1" speed="5.56" shape="10889.79,3348.20 10894.37,3352.10 10902.50,3359.45 10906.48,3366.47 10907.50,3371.49 10908.78,3389.24 10910.39,3397.72 10913.09,3406.68 10916.80,3417.34 10918.06,3418.66 10920.91,3421.65" width="2.00" allow="bicycle"/>
    <edge id="-1003619987#2" from="9260784996" to="9260784998" priority="1" type="highway.cycleway" numLanes="1" speed="5.56" shape="10888.79,3344.32 10888.97,3346.22 10889.79,3348.20" width="2.00" allow="bicycle"/>
    <edge id="-1018289139" from="9392302044" to="588519040" priority="1" type="highway.service" numLanes="1" speed="5.56" allow="pedestrian delivery bicycle"/>
    <edge id="-1023342727#0" from="1560521518" to="1560521526" priority="3" type="highway.residential" numLanes="1" speed="13.89" shape="6093.05,2666.60 6079.91,2665.24 6059.17,2669.59" disallow="tram rail_urban rail rail_electric rail_fast ship"/>
    <edge id="-1023342727#1" from="1560521526" to="1560521518" priority="3" type="highway.residential" numLanes="1" speed="13.89" shape="6059.17,2669.59 6071.59,2679.91 6089.68,2681.96 6094.17,2675.26 6093.05,2666.60" disallow="tram rail_urban rail rail_electric rail_fast ship"/>
    <edge id="-1023342728" from="1560521526" to="1560521457" priority="3" type="highway.residential" numLanes="1" speed="13.89" shape="6059.17,2669.59 6043.16,2649.52 6043.82,2640.26" disallow="tram rail_urban rail rail_electric rail_fast ship"/>
    <edge id="-1023342729" from="1560521457" to="1560521447" priority="3" type="highway.residential" numLanes="1" speed="13.89" disallow="tram rail_urban rail rail_electric rail_fast ship"/>
    <edge id="-1032354532#0" from="9512010412" to="9512010404" priority="1" type="highway.service" numLanes="1" speed="5.56" shape="9652.50,5144.96 9628.07,5125.32 9619.80,5118.68" allow="pedestrian delivery bicycle"/>
    <edge id="-1032354532#1" from="9512010406" to="9512010412" priority="1" type="highway.service" numLanes="1" speed="5.56" allow="pedestrian delivery bicycle"/>
    <edge id="-1032354532#2" from="11842220275" to="9512010406" priority="1" type="highway.service" numLanes="1" speed="5.56" allow="pedestrian delivery bicycle"/>
    <edge id="-1032354532#3" from="9512010405" to="11842220275" priority="1" type="highway.service" numLanes="1" speed="5.56" allow="pedestrian delivery bicycle"/>
    <edge id="-1032354533#0" from="9512010720" to="11842220275" priority="1" type="highway.service" numLanes="1" speed="5.56" shape="9881.98,5109.04 9809.24,5200.57 9799.50,5216.39 9796.01,5218.89 9791.21,5219.75 9786.18,5223.75 9785.23,5231.50 9786.61,5237.83 9787.63,5239.67 9781.45,5247.19" allow="pedestrian delivery bicycle"/>
    <edge id="-1032354533#1" from="9512010407" to="9512010720" priority="1" type="highway.service" numLanes="1" speed="5.56" allow="pedestrian delivery bicycle"/>
    <edge id="-1032354534" from="9512010408" to="9512010406" priority="1" type="highway.service" numLanes="1" speed="5.56" allow="pedestrian delivery bicycle"/>
    <edge id="-1032354535#0" from="9512010410" to="9512010408" priority="1" type="highway.path" numLanes="1" speed="5.56" width="2.00" allow="pedestrian bicycle"/>
    <edge id="-1032354535#1" from="9512010409" to="9512010410" priority="1" type="highway.path" numLanes="1" speed="5.56" width="2.00" allow="pedestrian bicycle"/>
    <edge id="-1032354536" from="9512010411" to="9512010410" priority="1" type="highway.path" numLanes="1" speed="5.56" width="2.00" allow="pedestrian bicycle"/>
    <edge id="-1032354537" from="9512010407" to="9512010412" priority="1" type="highway.path" numLanes="1" speed="5.56" shape="9908.62,5076.78 9877.87,5061.08 9781.52,4978.11 9749.85,4977.37 9726.98,5003.52 9684.58,5057.26 9653.79,5093.89 9649.97,5122.49 9652.50,5144.96" width="2.00" allow="pedestrian bicycle"/>
    <edge id="-1032354538#0" from="9511996745" to="9512010720" priority="1" type="highway.path" numLanes="1" speed="5.56" width="2.00" allow="pedestrian bicycle"/>
    <edge id="-1032354538#1" from="3796424985" to="9511996745" priority="1" type="highway.path" numLanes="1" speed="5.56" width="2.00" allow="pedestrian bicycle"/>
    <edge id="-1032354539#0" from="9511996740" to="9512010405" priority="1" type="highway.path" numLanes="1" speed="5.56" shape="9885.97,5161.49 9865.35,5189.82 9848.17,5222.69 9813.18,5272.15" width="2.00" allow="pedestrian bicycle"/>
    <edge id="-1032354539#1" from="9512010724" to="9511996740" priority="1" type="highway.path" numLanes="1" speed="5.56" shape="9913.49,5130.68 9896.04,5147.64 9885.97,5161.49" width="2.00" allow="pedestrian bicycle"/>
    <edge id="-1032354539#2" from="3796425037" to="9512010724" priority="1" type="highway.path" numLanes="1" speed="5.56" width="2.00" allow="pedestrian bicycle"/>
    <edge id="-1032354542" from="9512010733" to="9512010405" priority="1" type="highway.service" numLanes="1" speed="5.56" allow="pedestrian delivery bicycle"/>
    <edge id="-1032355010" from="9511996745" to="9511996740" priority="1" type="highway.path" numLanes="1" speed="5.56" shape="9896.72,5118.87 9891.36,5125.51 9885.18,5129.35 9881.69,5137.00 9882.52,5149.56 9885.97,5161.49" width="2.00" allow="pedestrian bicycle"/>
    <edge id="-1032355011" from="9512010407" to="9512010724" priority="1" type="highway.path" numLanes="1" speed="5.56" shape="9908.62,5076.78 9932.05,5087.10 9934.39,5100.13 9913.49,5130.68" width="2.00" allow="pedestrian bicycle"/>
    <edge id="-1037081851#0" from="9553824359" to="9553824360" priority="1" type="highway.service" numLanes="1" speed="5.56" shape="11224.82,3476.21 11220.80,3473.16 11204.40,3460.73" allow="pedestrian delivery bicycle"/>
    <edge id="-1037081851#1" from="9562218893" to="9553824359" priority="1" type="highway.service" numLanes="1" speed="5.56" shape="11232.22,3539.85 11234.97,3536.08 11248.66,3517.19 11244.59,3490.40 11229.00,3479.21 11224.82,3476.21" allow="pedestrian delivery bicycle"/>
    <edge id="-1037081852" from="599360549" to="9553824397" priority="3" type="highway.residential" numLanes="1" speed="13.89" shape="11284.52,3479.39 11283.40,3484.62 11285.31,3501.62" disallow="tram rail_urban rail rail_electric rail_fast ship"/>
    <edge id="-1038206786#0" from="8752479120" to="9562218856" priority="1" type="highway.service" numLanes="1" speed="5.56" allow="pedestrian delivery bicycle"/>
    <edge id="-1038206786#1" from="9562226989" to="8752479120" priority="1" type="highway.service" numLanes="1" speed="5.56" shape="11586.46,3483.30 11593.36,3482.20 11596.72,3484.16 11599.23,3487.20 11616.29,3510.21 11623.67,3526.81" allow="pedestrian delivery bicycle"/>
    <edge id="-1038206793" from="9562218910" to="599360545" priority="1" type="highway.service" numLanes="1" speed="5.56" allow="pedestrian delivery bicycle"/>
    <edge id="-1038206794#0" from="9562218910" to="9562218912" priority="1" type="highway.service" numLanes="1" speed="5.56" allow="pedestrian delivery bicycle"/>
    <edge id="-1038206794#1" from="9562218911" to="9562218910" priority="1" type="highway.service" numLanes="1" speed="5.56" allow="pedestrian delivery bicycle"/>
    <edge id="-1038206801" from="9562226947" to="9562226952" priority="1" type="highway.service" numLanes="1" speed="5.56" shape="11224.70,3177.47 11253.58,3208.80 11306.70,3265.31 11315.80,3273.73 11323.35,3279.28 11333.60,3287.44 11347.59,3302.86 11353.48,3314.80 11358.74,3322.24" allow="pedestrian delivery bicycle"/>
    <edge id="-1038206803#0" from="10708802888" to="10708802891" priority="1" type="highway.service" numLanes="1" speed="5.56" shape="11079.60,3488.23 11073.27,3480.91 11043.06,3488.35 11029.13,3500.62" allow="pedestrian delivery bicycle"/>
    <edge id="-1038206803#1" from="9562226960" to="10708802888" priority="1" type="highway.service" numLanes="1" speed="5.56" allow="pedestrian delivery bicycle"/>
    <edge id="-1038206803#2" from="9562226959" to="9562226960" priority="1" type="highway.service" numLanes="1" speed="5.56" allow="pedestrian delivery bicycle"/>
    <edge id="-1038206803#3" from="cluster_12624176003_9562226958" to="9562226959" priority="1" type="highway.service" numLanes="1" speed="5.56" shape="11142.56,3502.77 11138.37,3497.97 11118.82,3475.65" allow="pedestrian delivery bicycle"/>
    <edge id="-1038206804" from="9562226970" to="9562226971" priority="1" type="highway.service" numLanes="1" speed="5.56" allow="pedestrian delivery bicycle"/>
    <edge id="-1038206805#0" from="9562226970" to="9562226974" priority="1" type="highway.service" numLanes="1" speed="5.56" allow="pedestrian delivery bicycle"/>
    <edge id="-1038206805#1" from="9562226972" to="9562226970" priority="1" type="highway.service" numLanes="1" speed="5.56" shape="11239.01,3678.93 11249.39,3692.11 11231.27,3706.67" allow="pedestrian delivery bicycle"/>
    <edge id="-1041496289" from="614732213" to="9983551995" priority="10" type="highway.tertiary" numLanes="1" speed="22.22" shape="6896.21,4440.29 6895.34,4430.20 6894.79,4423.97 6894.25,4415.37 6893.45,4408.15 6891.81,4399.06 6890.06,4389.93 6884.68,4367.61 6880.23,4349.31 6867.08,4298.33 6858.96,4267.43 6858.36,4263.53 6857.23,4258.37 6856.14,4254.76 6855.03,4252.68" disallow="tram rail_urban rail rail_electric rail_fast ship"/>
    <edge id="-1041496926#0" from="cluster_9983551961_9983551988" to="9588380442" priority="1" type="highway.service" numLanes="1" speed="13.89" shape="6848.77,4365.21 6855.27,4378.16" allow="pedestrian delivery bicycle"/>
    <edge id="-1041496926#2" from="11879421934" to="cluster_9983551961_9983551988" priority="1" type="highway.service" numLanes="1" speed="13.89" shape="6821.96,4315.84 6845.38,4359.14" allow="pedestrian delivery bicycle"/>
    <edge id="-1041496926#3" from="cluster_8895784596_9986096227" to="11879421934" priority="1" type="highway.service" numLanes="1" speed="13.89" shape="6790.38,4255.12 6821.96,4315.84" allow="pedestrian delivery bicycle"/>
    <edge id="-1051147529" from="9659481991" to="cluster_1560521524_9659481994" priority="1" type="highway.track" numLanes="1" speed="5.56" shape="5643.73,2700.15 5660.73,2694.96 5685.73,2682.48 5725.11,2670.02" allow="pedestrian motorcycle moped bicycle"/>
    <edge id="-1051147531#0" from="cluster_12337774414_9659512856" to="9659512857" priority="1" type="highway.service" numLanes="1" speed="5.56" shape="6158.64,4068.63 6178.06,4115.59" allow="pedestrian delivery bicycle"/>
    <edge id="-1051147532" from="9659512858" to="9659512861" priority="1" type="highway.service" numLanes="1" speed="5.56" shape="6165.97,4041.20 6156.97,4020.52 6159.71,4014.50 6167.69,4010.60" allow="pedestrian delivery bicycle"/>
    <edge id="-1051147533" from="9659512862" to="9659512864" priority="1" type="highway.service" numLanes="1" speed="5.56" shape="6177.56,4033.32 6188.51,4028.68 6170.22,3985.75" allow="pedestrian delivery bicycle"/>
    <edge id="-1051147534#0" from="9659512864" to="9659512866" priority="1" type="highway.service" numLanes="1" speed="5.56" allow="pedestrian delivery bicycle"/>
    <edge id="-1051147534#1" from="9659512865" to="9659512864" priority="1" type="highway.service" numLanes="1" speed="5.56" allow="pedestrian delivery bicycle"/>
    <edge id="-1051342534" from="9661392174" to="9661392175" priority="1" type="highway.service" numLanes="1" speed="5.56" allow="pedestrian delivery bicycle"/>
    <edge id="-1051342536" from="614732433" to="9661392182" priority="1" type="highway.service" numLanes="1" speed="5.56" shape="7081.87,4909.45 7072.25,4914.91 7030.62,4930.40" allow="pedestrian delivery bicycle"/>
    <edge id="-1051342537" from="9661392188" to="9661392193" priority="1" type="highway.service" numLanes="1" speed="5.56" shape="6960.96,5226.29 6951.99,5223.61 6947.58,5223.79 6940.84,5225.66 6933.07,5230.30 6912.32,5232.65 6908.50,5233.08" allow="pedestrian delivery bicycle"/>
    <edge id="-1051342538" from="9661392194" to="9661392197" priority="1" type="highway.service" numLanes="1" speed="5.56" allow="pedestrian delivery bicycle"/>
    <edge id="-1051342539#0" from="9661392197" to="9661392198" priority="1" type="highway.service" numLanes="1" speed="5.56" shape="6895.96,5268.31 6905.21,5267.18 6913.45,5266.06" allow="pedestrian delivery bicycle"/>
    <edge id="-1051342539#1" from="9661392195" to="9661392197" priority="1" type="highway.service" numLanes="1" speed="5.56" shape="6857.39,5290.98 6898.50,5284.89 6895.96,5268.31" allow="pedestrian delivery bicycle"/>
    <edge id="-1051342540" from="9661392206" to="9661392207" priority="1" type="highway.service" numLanes="1" speed="5.56" allow="pedestrian delivery bicycle"/>
    <edge id="-1051342541#0" from="9661392207" to="cluster_11061478966_9661392211_9661392214" priority="1" type="highway.service" numLanes="1" speed="5.56" shape="7482.37,5509.19 7445.36,5499.92" allow="pedestrian delivery bicycle"/>
    <edge id="-1051342541#1" from="9661392208" to="9661392207" priority="1" type="highway.service" numLanes="1" speed="5.56" shape="7468.47,5554.17 7482.36,5546.01 7489.41,5510.96 7482.37,5509.19" allow="pedestrian delivery bicycle"/>
    <edge id="-1051342542" from="9661392212" to="cluster_11061478966_9661392211_9661392214" priority="1" type="highway.service" numLanes="1" speed="5.56" shape="7421.30,5526.32 7427.14,5501.37 7444.18,5505.18" allow="pedestrian delivery bicycle"/>
    <edge id="-1051342543" from="9661392215" to="cluster_11061478970_9661404517" priority="1" type="highway.service" numLanes="1" speed="5.56" shape="7404.71,5560.07 7399.81,5526.39 7381.59,5528.83" allow="pedestrian delivery bicycle"/>
    <edge id="-1051342544#0" from="cluster_11061478970_9661404517" to="9661404519" priority="1" type="highway.service" numLanes="1" speed="5.56" shape="7381.17,5525.72 7376.94,5495.10" allow="pedestrian delivery bicycle"/>
    <edge id="-1051342544#2" from="9661404518" to="cluster_11061478970_9661404517" priority="1" type="highway.service" numLanes="1" speed="5.56" shape="7387.02,5568.51 7381.59,5528.83" allow="pedestrian delivery bicycle"/>
    <edge id="-1051342552" from="9661404582" to="9661404591" priority="1" type="highway.service" numLanes="1" speed="5.56" shape="6409.43,5338.38 6391.52,5341.04 6378.58,5347.23" allow="pedestrian delivery bicycle"/>
    <edge id="-1051342554#0" from="9661404588" to="615216642" priority="1" type="highway.service" numLanes="1" speed="5.56" allow="pedestrian delivery bicycle"/>
    <edge id="-1051342554#1" from="9661404589" to="9661404588" priority="1" type="highway.service" numLanes="1" speed="5.56" allow="pedestrian delivery bicycle"/>
    <edge id="-1051342555#0" from="9661404591" to="9661404594" priority="1" type="highway.service" numLanes="1" speed="5.56" allow="pedestrian delivery bicycle"/>
    <edge id="-1051342555#1" from="9661404590" to="9661404591" priority="1" type="highway.service" numLanes="1" speed="5.56" allow="pedestrian delivery bicycle"/>
    <edge id="-1051342556#0" from="9661404594" to="9661404595" priority="1" type="highway.service" numLanes="1" speed="5.56" allow="pedestrian delivery bicycle"/>
    <edge id="-1051342556#1" from="9661404592" to="9661404594" priority="1" type="highway.service" numLanes="1" speed="5.56" shape="6351.12,5386.55 6346.00,5352.69 6363.42,5349.55" allow="pedestrian delivery bicycle"/>
    <edge id="-1051342558" from="9661404600" to="11059770659" priority="1" type="highway.service" numLanes="1" speed="5.56" allow="pedestrian delivery bicycle"/>
    <edge id="-1051342560" from="9661404606" to="9661404608" priority="1" type="highway.service" numLanes="1" speed="5.56" allow="pedestrian delivery bicycle"/>
    <edge id="-1051342561#0" from="9661404608" to="9661404609" priority="1" type="highway.service" numLanes="1" speed="5.56" allow="pedestrian delivery bicycle"/>
    <edge id="-1051342561#1" from="9661404607" to="9661404608" priority="1" type="highway.service" numLanes="1" speed="5.56" allow="pedestrian delivery bicycle"/>
    <edge id="-1051342563" from="9661404614" to="9661404615" priority="1" type="highway.service" numLanes="1" speed="5.56" allow="pedestrian delivery bicycle"/>
    <edge id="-1051342565#0" from="9661404621" to="9661404622" priority="1" type="highway.service" numLanes="1" speed="5.56" allow="pedestrian delivery bicycle"/>
    <edge id="-1051342565#1" from="9661404620" to="9661404621" priority="1" type="highway.service" numLanes="1" speed="5.56" allow="pedestrian delivery bicycle"/>
    <edge id="-1051342566" from="9661404625" to="9661404623" priority="1" type="highway.service" numLanes="1" speed="5.56" allow="pedestrian delivery bicycle"/>
    <edge id="-1051342567#0" from="9661404621" to="9661404626" priority="1" type="highway.service" numLanes="1" speed="5.56" allow="pedestrian delivery bicycle"/>
    <edge id="-1051342567#1" from="9661404625" to="9661404621" priority="1" type="highway.service" numLanes="1" speed="5.56" allow="pedestrian delivery bicycle"/>
    <edge id="-1051342567#2" from="9661404624" to="9661404625" priority="1" type="highway.service" numLanes="1" speed="5.56" allow="pedestrian delivery bicycle"/>
    <edge id="-1056315401" from="9706028790" to="cluster_2104275016_9706028772" priority="1" type="highway.track" numLanes="1" speed="5.56" shape="11616.97,4139.12 11620.62,4149.13" allow="pedestrian motorcycle moped bicycle"/>
    <edge id="-1056315402#0" from="9706028778" to="9706028777" priority="1" type="highway.service" numLanes="1" speed="5.56" allow="pedestrian delivery bicycle"/>
    <edge id="-1056315402#1" from="9706028773" to="9706028778" priority="1" type="highway.service" numLanes="1" speed="5.56" shape="11567.62,4107.24 11565.07,4095.35 11565.34,4093.57 11566.50,4092.88 11593.01,4087.94" allow="pedestrian delivery bicycle"/>
    <edge id="-1056315403" from="9706028778" to="cluster_9706028782_9706028783" priority="1" type="highway.service" numLanes="1" speed="5.56" shape="11593.01,4087.94 11600.02,4132.44 11601.23,4134.08 11603.49,4134.24 11615.95,4132.61" allow="pedestrian delivery bicycle"/>
    <edge id="-1056315404" from="cluster_9706028782_9706028783" to="9706028788" priority="1" type="highway.service" numLanes="1" speed="5.56" shape="11615.06,4126.91 11634.52,4123.66 11637.63,4121.84 11640.24,4118.76 11641.45,4114.93 11637.68,4088.87" allow="pedestrian delivery bicycle"/>
    <edge id="-1056315405#0" from="cluster_9706028782_9706028783" to="9706028790" priority="1" type="highway.service" numLanes="1" speed="5.56" shape="11615.95,4132.61 11616.97,4139.12" allow="pedestrian delivery bicycle"/>
    <edge id="-1056315405#2" from="9706028789" to="cluster_9706028782_9706028783" priority="1" type="highway.service" numLanes="1" speed="5.56" shape="11608.79,4086.80 11615.06,4126.91" allow="pedestrian delivery bicycle"/>
    <edge id="-1059162252#0" from="11024934587" to="9731715287" priority="3" type="highway.residential" numLanes="1" speed="13.89" shape="6735.71,1579.74 6767.57,1566.52 6772.49,1562.93" disallow="tram rail_urban rail rail_electric rail_fast ship"/>
    <edge id="-1059162252#1" from="9731715270" to="11024934587" priority="3" type="highway.residential" numLanes="1" speed="13.89" shape="6655.14,1574.74 6668.13,1596.87 6670.03,1600.11 6670.66,1601.26 6671.40,1602.15 6672.28,1602.74 6673.33,1603.16 6674.51,1603.15 6675.72,1602.98 6678.49,1602.18 6724.17,1584.53 6735.71,1579.74" disallow="tram rail_urban rail rail_electric rail_fast ship"/>
    <edge id="-1059162253#0" from="9731715284" to="9731715286" priority="3" type="highway.residential" numLanes="1" speed="13.89" disallow="tram rail_urban rail rail_electric rail_fast ship"/>
    <edge id="-1059162253#1" from="9731715285" to="9731715284" priority="3" type="highway.residential" numLanes="1" speed="13.89" disallow="tram rail_urban rail rail_electric rail_fast ship"/>
    <edge id="-1059162254#0" from="9731715286" to="9731715288" priority="3" type="highway.residential" numLanes="1" speed="13.89" disallow="tram rail_urban rail rail_electric rail_fast ship"/>
    <edge id="-1059162254#1" from="11024934589" to="9731715286" priority="3" type="highway.residential" numLanes="1" speed="13.89" shape="6757.38,1523.75 6752.92,1512.17 6744.89,1491.36" disallow="tram rail_urban rail rail_electric rail_fast ship"/>
    <edge id="-1059162254#2" from="9731715287" to="11024934589" priority="3" type="highway.residential" numLanes="1" speed="13.89" shape="6772.49,1562.93 6759.08,1528.14 6757.38,1523.75" disallow="tram rail_urban rail rail_electric rail_fast ship"/>
    <edge id="-1069925329#0" from="9819817186" to="9819817184" priority="1" type="highway.service" numLanes="1" speed="5.56" shape="7329.50,4803.54 7332.39,4810.34 7335.35,4817.31" allow="pedestrian delivery bicycle"/>
    <edge id="-1069925329#1" from="9819817187" to="9819817186" priority="1" type="highway.service" numLanes="1" speed="5.56" allow="pedestrian delivery bicycle"/>
    <edge id="-1069925329#2" from="9819817189" to="9819817187" priority="1" type="highway.service" numLanes="1" speed="5.56" shape="7290.22,4835.27 7287.23,4828.23 7284.39,4821.90" allow="pedestrian delivery bicycle"/>
    <edge id="-1069925330#0" from="9819817190" to="9819817187" priority="1" type="highway.service" numLanes="1" speed="5.56" allow="pedestrian delivery bicycle"/>
    <edge id="-1069925330#1" from="9819817191" to="9819817190" priority="1" type="highway.service" numLanes="1" speed="5.56" allow="pedestrian delivery bicycle"/>
    <edge id="-1069925330#2" from="9819817186" to="9819817191" priority="1" type="highway.service" numLanes="1" speed="5.56" allow="pedestrian delivery bicycle"/>
    <edge id="-1069925331#0" from="9819817192" to="9819817190" priority="1" type="highway.service" numLanes="1" speed="5.56" allow="pedestrian delivery bicycle"/>
    <edge id="-1069925331#1" from="9819817203" to="9819817192" priority="1" type="highway.service" numLanes="1" speed="5.56" allow="pedestrian delivery bicycle"/>
    <edge id="-1069925331#2" from="9819817191" to="9819817203" priority="1" type="highway.service" numLanes="1" speed="5.56" shape="7325.11,4794.26 7318.77,4778.81 7298.63,4786.57" allow="pedestrian delivery bicycle"/>
    <edge id="-1069932140#0" from="9819874954" to="9819874953" priority="1" type="highway.service" numLanes="1" speed="5.56" allow="pedestrian delivery bicycle"/>
    <edge id="-1069932140#1" from="9819874957" to="9819874954" priority="1" type="highway.service" numLanes="1" speed="5.56" shape="7282.80,4947.99 7266.04,4901.64 7264.84,4899.90" allow="pedestrian delivery bicycle"/>
    <edge id="-1069932140#2" from="11884752547" to="9819874957" priority="1" type="highway.service" numLanes="1" speed="5.56" shape="7317.52,5042.07 7310.81,5024.39 7282.80,4947.99" allow="pedestrian delivery bicycle"/>
    <edge id="-1069932140#3" from="11880947532" to="11884752547" priority="1" type="highway.service" numLanes="1" speed="5.56" shape="7406.95,5120.47 7382.36,5128.33 7372.96,5106.47 7353.85,5113.65 7348.45,5113.65 7343.38,5110.12 7317.52,5042.07" allow="pedestrian delivery bicycle"/>
    <edge id="-1069932140#4" from="495147001" to="11880947532" priority="1" type="highway.service" numLanes="1" speed="5.56" shape="7546.64,5007.14 7554.15,5030.57 7563.65,5063.38 7406.95,5120.47" allow="pedestrian delivery bicycle"/>
    <edge id="-1069932143" from="9819874965" to="9819874964" priority="1" type="highway.service" numLanes="1" speed="5.56" shape="7319.32,5011.22 7310.47,4986.47 7297.06,4949.05 7294.95,4943.84" allow="pedestrian delivery bicycle"/>
    <edge id="-1069932144" from="9819874969" to="9819874967" priority="1" type="highway.service" numLanes="1" speed="5.56" shape="7338.13,5014.46 7312.13,4943.78 7310.15,4938.96" allow="pedestrian delivery bicycle"/>
    <edge id="-1070590563" from="8119291072" to="9825085638" priority="1" type="highway.service" numLanes="1" speed="5.56" shape="7402.31,4790.96 7408.66,4807.02 7409.56,4809.37" allow="pedestrian delivery bicycle"/>
    <edge id="-1070590568#0" from="9825085658" to="8119291071" priority="1" type="highway.service" numLanes="1" speed="5.56" allow="pedestrian delivery bicycle"/>
    <edge id="-1070590568#1" from="9825085706" to="9825085658" priority="1" type="highway.service" numLanes="1" speed="5.56" allow="pedestrian delivery bicycle"/>
    <edge id="-1070590568#2" from="9825085682" to="9825085706" priority="1" type="highway.service" numLanes="1" speed="5.56" allow="pedestrian delivery bicycle"/>
    <edge id="-1070590568#3" from="9825085638" to="9825085682" priority="1" type="highway.service" numLanes="1" speed="5.56" allow="pedestrian delivery bicycle"/>
    <edge id="-1070590569#0" from="9819874964" to="9819874957" priority="1" type="highway.service" numLanes="1" speed="5.56" allow="pedestrian delivery bicycle"/>
    <edge id="-1070590569#1" from="9819874967" to="9819874964" priority="1" type="highway.service" numLanes="1" speed="5.56" allow="pedestrian delivery bicycle"/>
    <edge id="-1070590569#2" from="9825085651" to="9819874967" priority="1" type="highway.service" numLanes="1" speed="5.56" allow="pedestrian delivery bicycle"/>
    <edge id="-1070590569#3" from="9819874958" to="9825085651" priority="1" type="highway.service" numLanes="1" speed="5.56" allow="pedestrian delivery bicycle"/>
    <edge id="-1070590569#4" from="9819874959" to="9819874958" priority="1" type="highway.service" numLanes="1" speed="5.56" allow="pedestrian delivery bicycle"/>
    <edge id="-107184446" from="1232331045" to="cluster_484610253_9818076900" priority="1" type="highway.service" numLanes="1" speed="5.56" shape="8896.96,3586.10 8963.37,3690.31 8966.21,3694.78" allow="pedestrian delivery bicycle"/>
    <edge id="-1079538607#0" from="9983551949" to="9895782756" priority="1" type="highway.cycleway" numLanes="1" speed="5.56" shape="6889.56,4440.79 6888.80,4435.00 6888.24,4429.32 6886.75,4412.02 6885.83,4397.91 6883.17,4383.10 6880.29,4370.93 6875.17,4353.64 6850.96,4261.76 6847.00,4253.61 6842.93,4248.49 6838.30,4244.85 6831.67,4241.24 6826.70,4240.50 6822.34,4240.62 6810.14,4245.90" width="2.00" allow="bicycle"/>
    <edge id="-1079538607#1" from="9983551952" to="9983551949" priority="1" type="highway.cycleway" numLanes="1" speed="5.56" shape="6905.72,4471.70 6898.66,4466.77 6889.83,4448.78 6889.56,4440.79" width="2.00" allow="bicycle"/>
    <edge id="-1079538611" from="9895782754" to="cluster_11055019175_3247021772_615216558_9895782752" priority="1" type="highway.cycleway" numLanes="1" speed="5.56" shape="6945.31,4584.33 6931.62,4582.19 6930.85,4579.05 6929.80,4574.81" width="2.00" allow="bicycle"/>
    <edge id="-1079849001" from="484664100" to="8143156926" priority="3" type="highway.residential" numLanes="1" speed="8.33" shape="9175.59,3666.38 9171.09,3669.19 9137.39,3692.03 9114.84,3707.01" disallow="tram rail_urban rail rail_electric rail_fast ship"/>
    <edge id="-1087786391#1" from="494093838" to="cluster_302850393_494093834" priority="3" type="highway.residential" numLanes="1" speed="13.89" shape="7841.87,4356.28 7868.83,4426.13 7870.53,4430.55 7873.35,4436.78" disallow="tram rail_urban rail rail_electric rail_fast ship"/>
    <edge id="-1087786391#2" from="494093832" to="494093838" priority="3" type="highway.residential" numLanes="1" speed="13.89" shape="7815.06,4288.08 7817.77,4295.22 7841.87,4356.28" disallow="tram rail_urban rail rail_electric rail_fast ship"/>
    <edge id="-1087786397#0" from="5612240958" to="588512603" priority="3" type="highway.residential" numLanes="1" speed="8.33" disallow="tram rail_urban rail rail_electric rail_fast ship"/>
    <edge id="-1087786397#1" from="588512611" to="5612240958" priority="3" type="highway.residential" numLanes="1" speed="8.33" shape="6089.27,5438.25 6109.26,5435.62 6242.76,5415.36" disallow="tram rail_urban rail rail_electric rail_fast ship"/>
    <edge id="-1087786397#2" from="1475725386" to="588512611" priority="3" type="highway.residential" numLanes="1" speed="8.33" disallow="tram rail_urban rail rail_electric rail_fast ship"/>